<?xml version="1.0" encoding="UTF-8"?>

<!-- generated on 2026-03-30 21:46:02 by Eclipse SUMO netedit Version 1.20.0
-->

<routes xmlns:xsi="http://www.w3.org/2001/XMLSchema-instance" xsi:noNamespaceSchemaLocation="http://sumo.dlr.de/xsd/routes_file.xsd">
    <!-- Routes -->
    <route id="E0_E16_0" edges="E0 E1 E20 E22 E21 E23 E29 E8 E30 E31 E9 E17 E32 E18 E38 E39 E40 E14 E15 E16"/>
    <route id="E0_E16_1" edges="E0 E1 E20 E43 E25 E26 E7 E42 E41 E14 E15 E16"/>
</routes>
