<?xml version="1.0" encoding="UTF-8"?>

<!-- generated on 2026-07-08 03:09:06 by Eclipse SUMO sumo Version 1.20.0
-->

<configuration xmlns:xsi="http://www.w3.org/2001/XMLSchema-instance" xsi:noNamespaceSchemaLocation="http://sumo.dlr.de/xsd/sumoConfiguration.xsd">

    <input>
        <net-file value="ishinomaki_one_four_one.net.xml"/>
        <route-files value="ishinoamki_four_route_one.rou.xml"/>
    </input>

</configuration>
