<?xml version="1.0" encoding="UTF-8"?>

<!-- generated on 2025-11-12 15:21:33 by Eclipse SUMO netedit Version 1.20.0
<configuration xmlns:xsi="http://www.w3.org/2001/XMLSchema-instance" xsi:noNamespaceSchemaLocation="http://sumo.dlr.de/xsd/neteditConfiguration.xsd">

    <input>
        <sumo-net-file value="/Users/kashiisamutakeshi/vehicle-assistant-system/scenarios/pervehicle/map_one/data/one_shelter_one_departure.net.xml"/>
    </input>

    <output>
        <output-file value="/Users/kashiisamutakeshi/vehicle-assistant-system/scenarios/pervehicle/map_one/data/one_shelter_one_departure.net.xml"/>
    </output>

    <processing>
        <geometry.min-radius.fix.railways value="false"/>
        <geometry.max-grade.fix value="false"/>
        <offset.disable-normalization value="true"/>
        <lefthand value="1"/>
    </processing>

    <junctions>
        <no-turnarounds value="true"/>
        <junctions.corner-detail value="5"/>
        <junctions.limit-turn-speed value="5.50"/>
        <rectangular-lane-cut value="0"/>
    </junctions>

    <pedestrian>
        <walkingareas value="0"/>
    </pedestrian>

</configuration>
-->

<net version="1.20" junctionCornerDetail="5" lefthand="true" limitTurnSpeed="5.50" xmlns:xsi="http://www.w3.org/2001/XMLSchema-instance" xsi:noNamespaceSchemaLocation="http://sumo.dlr.de/xsd/net_file.xsd">

    <location netOffset="0.00,0.00" convBoundary="-1200.00,-400.00,1200.00,200.00" origBoundary="-10000000000.00,-10000000000.00,10000000000.00,10000000000.00" projParameter="!"/>

    <edge id=":J0_0" function="internal">
        <lane id=":J0_0_0" index="0" speed="13.89" length="0.10" shape="300.00,-1.60 300.00,-1.60"/>
    </edge>
    <edge id=":J0_1" function="internal">
        <lane id=":J0_1_0" index="0" speed="13.89" length="0.10" shape="300.00,1.60 300.00,1.60"/>
    </edge>
    <edge id=":J1_0" function="internal">
        <lane id=":J1_0_0" index="0" speed="6.51" length="9.03" shape="198.40,-7.20 198.05,-4.75 197.00,-3.00 195.25,-1.95 192.80,-1.60"/>
    </edge>
    <edge id=":J1_1" function="internal">
        <lane id=":J1_1_0" index="0" speed="13.89" length="14.40" shape="198.40,-7.20 198.40,7.20"/>
    </edge>
    <edge id=":J1_2" function="internal">
        <lane id=":J1_2_0" index="0" speed="8.00" length="4.07" shape="198.40,-7.20 198.95,-3.35 199.04,-3.20"/>
    </edge>
    <edge id=":J1_12" function="internal">
        <lane id=":J1_12_0" index="0" speed="8.00" length="10.13" shape="199.04,-3.20 200.60,-0.60 203.35,1.05 207.20,1.60"/>
    </edge>
    <edge id=":J1_3" function="internal">
        <lane id=":J1_3_0" index="0" speed="6.51" length="9.03" shape="207.20,-1.60 204.75,-1.95 203.00,-3.00 201.95,-4.75 201.60,-7.20"/>
    </edge>
    <edge id=":J1_4" function="internal">
        <lane id=":J1_4_0" index="0" speed="13.89" length="14.40" shape="207.20,-1.60 192.80,-1.60"/>
    </edge>
    <edge id=":J1_5" function="internal">
        <lane id=":J1_5_0" index="0" speed="8.00" length="14.19" shape="207.20,-1.60 203.35,-1.05 200.60,0.60 198.95,3.35 198.40,7.20"/>
    </edge>
    <edge id=":J1_6" function="internal">
        <lane id=":J1_6_0" index="0" speed="6.51" length="9.03" shape="201.60,7.20 201.95,4.75 203.00,3.00 204.75,1.95 207.20,1.60"/>
    </edge>
    <edge id=":J1_7" function="internal">
        <lane id=":J1_7_0" index="0" speed="13.89" length="14.40" shape="201.60,7.20 201.60,-7.20"/>
    </edge>
    <edge id=":J1_8" function="internal">
        <lane id=":J1_8_0" index="0" speed="8.00" length="4.07" shape="201.60,7.20 201.05,3.35 200.96,3.20"/>
    </edge>
    <edge id=":J1_13" function="internal">
        <lane id=":J1_13_0" index="0" speed="8.00" length="10.13" shape="200.96,3.20 199.40,0.60 196.65,-1.05 192.80,-1.60"/>
    </edge>
    <edge id=":J1_9" function="internal">
        <lane id=":J1_9_0" index="0" speed="6.51" length="9.03" shape="192.80,1.60 195.25,1.95 197.00,3.00 198.05,4.75 198.40,7.20"/>
    </edge>
    <edge id=":J1_10" function="internal">
        <lane id=":J1_10_0" index="0" speed="13.89" length="14.40" shape="192.80,1.60 207.20,1.60"/>
    </edge>
    <edge id=":J1_11" function="internal">
        <lane id=":J1_11_0" index="0" speed="8.00" length="14.19" shape="192.80,1.60 196.65,1.05 199.40,-0.60 201.05,-3.35 201.60,-7.20"/>
    </edge>
    <edge id=":J12_0" function="internal">
        <lane id=":J12_0_0" index="0" speed="13.89" length="3.00" shape="-998.50,-1.60 -1001.50,-1.60"/>
    </edge>
    <edge id=":J15_0" function="internal">
        <lane id=":J15_0_0" index="0" speed="13.89" length="3.00" shape="-401.60,-301.50 -401.60,-298.50"/>
    </edge>
    <edge id=":J16_0" function="internal">
        <lane id=":J16_0_0" index="0" speed="13.89" length="0.10" shape="-200.00,-1.60 -200.00,-1.60"/>
    </edge>
    <edge id=":J16_1" function="internal">
        <lane id=":J16_1_0" index="0" speed="13.89" length="0.10" shape="-200.00,1.60 -200.00,1.60"/>
    </edge>
    <edge id=":J17_0" function="internal">
        <lane id=":J17_0_0" index="0" speed="6.51" length="9.03" shape="-401.60,-7.20 -401.95,-4.75 -403.00,-3.00 -404.75,-1.95 -407.20,-1.60"/>
    </edge>
    <edge id=":J17_1" function="internal">
        <lane id=":J17_1_0" index="0" speed="8.00" length="14.19" shape="-401.60,-7.20 -401.05,-3.35 -399.40,-0.60 -396.65,1.05 -392.80,1.60"/>
    </edge>
    <edge id=":J17_2" function="internal">
        <lane id=":J17_2_0" index="0" speed="6.51" length="9.03" shape="-392.80,-1.60 -395.25,-1.95 -397.00,-3.00 -398.05,-4.75 -398.40,-7.20"/>
    </edge>
    <edge id=":J17_3" function="internal">
        <lane id=":J17_3_0" index="0" speed="13.89" length="14.40" shape="-392.80,-1.60 -407.20,-1.60"/>
    </edge>
    <edge id=":J17_4" function="internal">
        <lane id=":J17_4_0" index="0" speed="13.89" length="14.40" shape="-407.20,1.60 -392.80,1.60"/>
    </edge>
    <edge id=":J17_5" function="internal">
        <lane id=":J17_5_0" index="0" speed="8.00" length="4.07" shape="-407.20,1.60 -403.35,1.05 -403.20,0.96"/>
    </edge>
    <edge id=":J17_6" function="internal">
        <lane id=":J17_6_0" index="0" speed="8.00" length="10.13" shape="-403.20,0.96 -400.60,-0.60 -398.95,-3.35 -398.40,-7.20"/>
    </edge>
    <edge id=":J18_0" function="internal">
        <lane id=":J18_0_0" index="0" speed="13.89" length="0.10" shape="-600.00,-1.60 -600.00,-1.60"/>
    </edge>
    <edge id=":J18_1" function="internal">
        <lane id=":J18_1_0" index="0" speed="13.89" length="0.10" shape="-600.00,1.60 -600.00,1.60"/>
    </edge>
    <edge id=":J19_0" function="internal">
        <lane id=":J19_0_0" index="0" speed="13.89" length="0.10" shape="-800.00,-1.60 -800.00,-1.60"/>
    </edge>
    <edge id=":J19_1" function="internal">
        <lane id=":J19_1_0" index="0" speed="13.89" length="0.10" shape="-800.00,1.60 -800.00,1.60"/>
    </edge>
    <edge id=":J2_0" function="internal">
        <lane id=":J2_0_0" index="0" speed="13.89" length="0.10" shape="100.00,-1.60 100.00,-1.60"/>
    </edge>
    <edge id=":J2_1" function="internal">
        <lane id=":J2_1_0" index="0" speed="13.89" length="0.10" shape="100.00,1.60 100.00,1.60"/>
    </edge>
    <edge id=":J20_0" function="internal">
        <lane id=":J20_0_0" index="0" speed="13.89" length="0.10" shape="-401.60,-200.00 -401.60,-200.00"/>
    </edge>
    <edge id=":J20_1" function="internal">
        <lane id=":J20_1_0" index="0" speed="13.89" length="0.10" shape="-398.40,-200.00 -398.40,-200.00"/>
    </edge>
    <edge id=":J21_0" function="internal">
        <lane id=":J21_0_0" index="0" speed="13.89" length="0.10" shape="-401.60,-100.00 -401.60,-100.00"/>
    </edge>
    <edge id=":J21_1" function="internal">
        <lane id=":J21_1_0" index="0" speed="13.89" length="0.10" shape="-398.40,-100.00 -398.40,-100.00"/>
    </edge>
    <edge id=":J24_0" function="internal">
        <lane id=":J24_0_0" index="0" speed="13.89" length="3.00" shape="198.40,-301.50 198.40,-298.50"/>
    </edge>
    <edge id=":J25_0" function="internal">
        <lane id=":J25_0_0" index="0" speed="13.89" length="0.10" shape="198.40,-200.00 198.40,-200.00"/>
    </edge>
    <edge id=":J25_1" function="internal">
        <lane id=":J25_1_0" index="0" speed="13.89" length="0.10" shape="201.60,-200.00 201.60,-200.00"/>
    </edge>
    <edge id=":J26_0" function="internal">
        <lane id=":J26_0_0" index="0" speed="13.89" length="0.10" shape="198.40,-100.00 198.40,-100.00"/>
    </edge>
    <edge id=":J26_1" function="internal">
        <lane id=":J26_1_0" index="0" speed="13.89" length="0.10" shape="201.60,-100.00 201.60,-100.00"/>
    </edge>
    <edge id=":J27_0" function="internal">
        <lane id=":J27_0_0" index="0" speed="13.89" length="0.10" shape="198.40,100.00 198.40,100.00"/>
    </edge>
    <edge id=":J27_1" function="internal">
        <lane id=":J27_1_0" index="0" speed="13.89" length="0.10" shape="201.60,100.00 201.60,100.00"/>
    </edge>
    <edge id=":J28_0" function="internal">
        <lane id=":J28_0_0" index="0" speed="6.08" length="7.74" shape="198.40,196.80 198.70,198.90 199.60,200.40 201.10,201.30 203.20,201.60"/>
    </edge>
    <edge id=":J28_1" function="internal">
        <lane id=":J28_1_0" index="0" speed="3.90" length="2.58" shape="203.20,198.40 202.50,198.30 202.00,198.00 201.70,197.50 201.60,196.80"/>
    </edge>
    <edge id=":J29_0" function="internal">
        <lane id=":J29_0_0" index="0" speed="13.89" length="0.10" shape="300.00,198.40 300.00,198.40"/>
    </edge>
    <edge id=":J29_1" function="internal">
        <lane id=":J29_1_0" index="0" speed="13.89" length="0.10" shape="300.00,201.60 300.00,201.60"/>
    </edge>
    <edge id=":J3_0" function="internal">
        <lane id=":J3_0_0" index="0" speed="13.89" length="0.10" shape="0.00,-1.60 0.00,-1.60"/>
    </edge>
    <edge id=":J3_1" function="internal">
        <lane id=":J3_1_0" index="0" speed="13.89" length="0.10" shape="0.00,1.60 0.00,1.60"/>
    </edge>
    <edge id=":J30_0" function="internal">
        <lane id=":J30_0_0" index="0" speed="13.89" length="0.10" shape="400.00,198.40 400.00,198.40"/>
    </edge>
    <edge id=":J30_1" function="internal">
        <lane id=":J30_1_0" index="0" speed="13.89" length="0.10" shape="400.00,201.60 400.00,201.60"/>
    </edge>
    <edge id=":J31_0" function="internal">
        <lane id=":J31_0_0" index="0" speed="13.89" length="0.10" shape="500.00,198.40 500.00,198.40"/>
    </edge>
    <edge id=":J31_1" function="internal">
        <lane id=":J31_1_0" index="0" speed="13.89" length="0.10" shape="500.00,201.60 500.00,201.60"/>
    </edge>
    <edge id=":J32_0" function="internal">
        <lane id=":J32_0_0" index="0" speed="13.89" length="0.10" shape="600.00,198.40 600.00,198.40"/>
    </edge>
    <edge id=":J32_1" function="internal">
        <lane id=":J32_1_0" index="0" speed="13.89" length="0.10" shape="600.00,201.60 600.00,201.60"/>
    </edge>
    <edge id=":J33_0" function="internal">
        <lane id=":J33_0_0" index="0" speed="13.89" length="0.10" shape="700.00,198.40 700.00,198.40"/>
    </edge>
    <edge id=":J33_1" function="internal">
        <lane id=":J33_1_0" index="0" speed="13.89" length="0.10" shape="700.00,201.60 700.00,201.60"/>
    </edge>
    <edge id=":J34_0" function="internal">
        <lane id=":J34_0_0" index="0" speed="13.89" length="0.10" shape="800.00,198.40 800.00,198.40"/>
    </edge>
    <edge id=":J34_1" function="internal">
        <lane id=":J34_1_0" index="0" speed="13.89" length="0.10" shape="800.00,201.60 800.00,201.60"/>
    </edge>
    <edge id=":J35_0" function="internal">
        <lane id=":J35_0_0" index="0" speed="13.89" length="0.10" shape="900.00,198.40 900.00,198.40"/>
    </edge>
    <edge id=":J35_1" function="internal">
        <lane id=":J35_1_0" index="0" speed="13.89" length="0.10" shape="900.00,201.60 900.00,201.60"/>
    </edge>
    <edge id=":J36_0" function="internal">
        <lane id=":J36_0_0" index="0" speed="6.08" length="7.74" shape="996.80,201.60 998.90,201.30 1000.40,200.40 1001.30,198.90 1001.60,196.80"/>
    </edge>
    <edge id=":J37_0" function="internal">
        <lane id=":J37_0_0" index="0" speed="13.89" length="0.30" shape="1001.60,100.15 1001.60,99.84"/>
    </edge>
    <edge id=":J37_1" function="internal">
        <lane id=":J37_1_0" index="0" speed="13.89" length="0.29" shape="998.40,99.86 998.40,100.15"/>
    </edge>
    <edge id=":J38_0" function="internal">
        <lane id=":J38_0_0" index="0" speed="6.50" length="9.03" shape="1001.33,22.59 1001.67,20.13 1002.72,18.38 1004.46,17.33 1006.91,16.97"/>
    </edge>
    <edge id=":J4_0" function="internal">
        <lane id=":J4_0_0" index="0" speed="13.89" length="0.10" shape="400.00,-1.60 400.00,-1.60"/>
    </edge>
    <edge id=":J4_1" function="internal">
        <lane id=":J4_1_0" index="0" speed="13.89" length="0.10" shape="400.00,1.60 400.00,1.60"/>
    </edge>
    <edge id=":J5_0" function="internal">
        <lane id=":J5_0_0" index="0" speed="13.89" length="0.10" shape="500.00,-1.60 500.00,-1.60"/>
    </edge>
    <edge id=":J5_1" function="internal">
        <lane id=":J5_1_0" index="0" speed="13.89" length="0.10" shape="500.00,1.60 500.00,1.60"/>
    </edge>
    <edge id=":J6_0" function="internal">
        <lane id=":J6_0_0" index="0" speed="13.89" length="0.10" shape="600.00,-1.60 600.00,-1.60"/>
    </edge>
    <edge id=":J6_1" function="internal">
        <lane id=":J6_1_0" index="0" speed="13.89" length="0.10" shape="600.00,1.60 600.00,1.60"/>
    </edge>
    <edge id=":J7_0" function="internal">
        <lane id=":J7_0_0" index="0" speed="13.89" length="0.10" shape="800.00,-1.60 800.00,-1.60"/>
    </edge>
    <edge id=":J7_1" function="internal">
        <lane id=":J7_1_0" index="0" speed="13.89" length="0.10" shape="800.00,1.60 800.00,1.60"/>
    </edge>
    <edge id=":J8_0" function="internal">
        <lane id=":J8_0_0" index="0" speed="13.89" length="3.00" shape="998.50,1.60 1001.50,1.60"/>
    </edge>
    <edge id=":J9_0" function="internal">
        <lane id=":J9_0_0" index="0" speed="13.89" length="0.10" shape="-100.00,-1.60 -100.00,-1.60"/>
    </edge>
    <edge id=":J9_1" function="internal">
        <lane id=":J9_1_0" index="0" speed="13.89" length="0.10" shape="-100.00,1.60 -100.00,1.60"/>
    </edge>

    <edge id="-E0" from="J0" to="J4" priority="-1">
        <lane id="-E0_0" index="0" speed="13.89" length="100.00" shape="300.00,1.60 400.00,1.60"/>
    </edge>
    <edge id="-E1" from="J1" to="J0" priority="-1">
        <lane id="-E1_0" index="0" speed="13.89" length="92.80" shape="207.20,1.60 300.00,1.60"/>
    </edge>
    <edge id="-E10" from="J16" to="J9" priority="-1">
        <lane id="-E10_0" index="0" speed="13.89" length="100.00" shape="-200.00,1.60 -100.00,1.60"/>
    </edge>
    <edge id="-E11" from="J12" to="J19" priority="-1">
        <lane id="-E11_0" index="0" speed="13.89" length="198.50" shape="-998.50,1.60 -800.00,1.60"/>
    </edge>
    <edge id="-E14" from="J17" to="J16" priority="-1">
        <lane id="-E14_0" index="0" speed="13.89" length="192.80" shape="-392.80,1.60 -200.00,1.60"/>
    </edge>
    <edge id="-E15" from="J18" to="J17" priority="-1">
        <lane id="-E15_0" index="0" speed="13.89" length="192.80" shape="-600.00,1.60 -407.20,1.60"/>
    </edge>
    <edge id="-E16" from="J19" to="J18" priority="-1">
        <lane id="-E16_0" index="0" speed="13.89" length="200.00" shape="-800.00,1.60 -600.00,1.60"/>
    </edge>
    <edge id="-E18" from="J20" to="J15" priority="-1">
        <lane id="-E18_0" index="0" speed="13.89" length="98.50" shape="-398.40,-200.00 -398.40,-298.50"/>
    </edge>
    <edge id="-E19" from="J21" to="J20" priority="-1">
        <lane id="-E19_0" index="0" speed="13.89" length="100.00" shape="-398.40,-100.00 -398.40,-200.00"/>
    </edge>
    <edge id="-E2" from="J2" to="J1" priority="-1">
        <lane id="-E2_0" index="0" speed="13.89" length="92.80" shape="100.00,1.60 192.80,1.60"/>
    </edge>
    <edge id="-E20" from="J17" to="J21" priority="-1">
        <lane id="-E20_0" index="0" speed="13.89" length="92.80" shape="-398.40,-7.20 -398.40,-100.00"/>
    </edge>
    <edge id="-E22" from="J25" to="J24" priority="-1">
        <lane id="-E22_0" index="0" speed="13.89" length="98.50" shape="201.60,-200.00 201.60,-298.50"/>
    </edge>
    <edge id="-E23" from="J26" to="J25" priority="-1">
        <lane id="-E23_0" index="0" speed="13.89" length="100.00" shape="201.60,-100.00 201.60,-200.00"/>
    </edge>
    <edge id="-E24" from="J1" to="J26" priority="-1">
        <lane id="-E24_0" index="0" speed="13.89" length="92.80" shape="201.60,-7.20 201.60,-100.00"/>
    </edge>
    <edge id="-E25" from="J27" to="J1" priority="-1">
        <lane id="-E25_0" index="0" speed="13.89" length="92.80" shape="201.60,100.00 201.60,7.20"/>
    </edge>
    <edge id="-E26" from="J28" to="J27" priority="-1">
        <lane id="-E26_0" index="0" speed="13.89" length="96.80" shape="201.60,196.80 201.60,100.00"/>
    </edge>
    <edge id="-E27" from="J29" to="J28" priority="-1">
        <lane id="-E27_0" index="0" speed="13.89" length="96.80" shape="300.00,198.40 203.20,198.40"/>
    </edge>
    <edge id="-E28" from="J30" to="J29" priority="-1">
        <lane id="-E28_0" index="0" speed="13.89" length="100.00" shape="400.00,198.40 300.00,198.40"/>
    </edge>
    <edge id="-E29" from="J31" to="J30" priority="-1">
        <lane id="-E29_0" index="0" speed="13.89" length="100.00" shape="500.00,198.40 400.00,198.40"/>
    </edge>
    <edge id="-E3" from="J3" to="J2" priority="-1">
        <lane id="-E3_0" index="0" speed="13.89" length="100.00" shape="0.00,1.60 100.00,1.60"/>
    </edge>
    <edge id="-E30" from="J32" to="J31" priority="-1">
        <lane id="-E30_0" index="0" speed="13.89" length="100.00" shape="600.00,198.40 500.00,198.40"/>
    </edge>
    <edge id="-E31" from="J33" to="J32" priority="-1">
        <lane id="-E31_0" index="0" speed="13.89" length="100.00" shape="700.00,198.40 600.00,198.40"/>
    </edge>
    <edge id="-E32" from="J34" to="J33" priority="-1">
        <lane id="-E32_0" index="0" speed="13.89" length="100.00" shape="800.00,198.40 700.00,198.40"/>
    </edge>
    <edge id="-E33" from="J35" to="J34" priority="-1">
        <lane id="-E33_0" index="0" speed="13.89" length="100.00" shape="900.00,198.40 800.00,198.40"/>
    </edge>
    <edge id="-E34" from="J36" to="J35" priority="-1">
        <lane id="-E34_0" index="0" speed="13.89" length="96.80" shape="996.80,198.40 900.00,198.40"/>
    </edge>
    <edge id="-E35" from="J37" to="J36" priority="-1">
        <lane id="-E35_0" index="0" speed="13.89" length="96.65" shape="998.40,100.15 998.40,196.80"/>
    </edge>
    <edge id="-E36" from="J38" to="J37" priority="-1">
        <lane id="-E36_0" index="0" speed="13.89" length="77.26" shape="998.13,22.60 998.40,99.86"/>
    </edge>
    <edge id="-E4" from="J5" to="J4" priority="-1">
        <lane id="-E4_0" index="0" speed="13.89" length="100.00" shape="500.00,-1.60 400.00,-1.60"/>
    </edge>
    <edge id="-E5" from="J6" to="J5" priority="-1">
        <lane id="-E5_0" index="0" speed="13.89" length="100.00" shape="600.00,-1.60 500.00,-1.60"/>
    </edge>
    <edge id="-E6" from="J7" to="J6" priority="-1">
        <lane id="-E6_0" index="0" speed="13.89" length="200.00" shape="800.00,-1.60 600.00,-1.60"/>
    </edge>
    <edge id="-E7" from="J8" to="J7" priority="-1">
        <lane id="-E7_0" index="0" speed="13.89" length="198.50" shape="998.50,-1.60 800.00,-1.60"/>
    </edge>
    <edge id="-E8" from="J9" to="J3" priority="-1">
        <lane id="-E8_0" index="0" speed="13.89" length="100.00" shape="-100.00,1.60 0.00,1.60"/>
    </edge>
    <edge id="E0" from="J4" to="J0" priority="-1">
        <lane id="E0_0" index="0" speed="13.89" length="100.00" shape="400.00,-1.60 300.00,-1.60"/>
    </edge>
    <edge id="E1" from="J0" to="J1" priority="-1">
        <lane id="E1_0" index="0" speed="13.89" length="92.80" shape="300.00,-1.60 207.20,-1.60"/>
    </edge>
    <edge id="E10" from="J9" to="J16" priority="-1">
        <lane id="E10_0" index="0" speed="13.89" length="100.00" shape="-100.00,-1.60 -200.00,-1.60"/>
    </edge>
    <edge id="E11" from="J19" to="J12" priority="-1">
        <lane id="E11_0" index="0" speed="13.89" length="198.50" shape="-800.00,-1.60 -998.50,-1.60"/>
    </edge>
    <edge id="E12" from="J12" to="J13" priority="-1">
        <lane id="E12_0" index="0" speed="13.89" length="198.50" shape="-1001.50,-1.60 -1200.00,-1.60"/>
    </edge>
    <edge id="E13" from="J14" to="J15" priority="-1">
        <lane id="E13_0" index="0" speed="13.89" length="98.50" shape="-401.60,-400.00 -401.60,-301.50"/>
    </edge>
    <edge id="E14" from="J16" to="J17" priority="-1" shape="-200.00,0.00 -300.00,0.00 -400.00,0.00">
        <lane id="E14_0" index="0" speed="13.89" length="192.80" shape="-200.00,-1.60 -300.00,-1.60 -392.80,-1.60"/>
    </edge>
    <edge id="E15" from="J17" to="J18" priority="-1">
        <lane id="E15_0" index="0" speed="13.89" length="192.80" shape="-407.20,-1.60 -600.00,-1.60"/>
    </edge>
    <edge id="E16" from="J18" to="J19" priority="-1">
        <lane id="E16_0" index="0" speed="13.89" length="200.00" shape="-600.00,-1.60 -800.00,-1.60"/>
    </edge>
    <edge id="E17" from="J8" to="J11" priority="-1">
        <lane id="E17_0" index="0" speed="13.89" length="198.50" shape="1001.50,1.60 1200.00,1.60"/>
    </edge>
    <edge id="E18" from="J15" to="J20" priority="-1">
        <lane id="E18_0" index="0" speed="13.89" length="98.50" shape="-401.60,-298.50 -401.60,-200.00"/>
    </edge>
    <edge id="E19" from="J20" to="J21" priority="-1">
        <lane id="E19_0" index="0" speed="13.89" length="100.00" shape="-401.60,-200.00 -401.60,-100.00"/>
    </edge>
    <edge id="E2" from="J1" to="J2" priority="-1">
        <lane id="E2_0" index="0" speed="13.89" length="92.80" shape="192.80,-1.60 100.00,-1.60"/>
    </edge>
    <edge id="E20" from="J21" to="J17" priority="-1">
        <lane id="E20_0" index="0" speed="13.89" length="92.80" shape="-401.60,-100.00 -401.60,-7.20"/>
    </edge>
    <edge id="E21" from="J23" to="J24" priority="-1">
        <lane id="E21_0" index="0" speed="13.89" length="98.50" shape="198.40,-400.00 198.40,-301.50"/>
    </edge>
    <edge id="E22" from="J24" to="J25" priority="-1">
        <lane id="E22_0" index="0" speed="13.89" length="98.50" shape="198.40,-298.50 198.40,-200.00"/>
    </edge>
    <edge id="E23" from="J25" to="J26" priority="-1">
        <lane id="E23_0" index="0" speed="13.89" length="100.00" shape="198.40,-200.00 198.40,-100.00"/>
    </edge>
    <edge id="E24" from="J26" to="J1" priority="-1">
        <lane id="E24_0" index="0" speed="13.89" length="92.80" shape="198.40,-100.00 198.40,-7.20"/>
    </edge>
    <edge id="E25" from="J1" to="J27" priority="-1">
        <lane id="E25_0" index="0" speed="13.89" length="92.80" shape="198.40,7.20 198.40,100.00"/>
    </edge>
    <edge id="E26" from="J27" to="J28" priority="-1">
        <lane id="E26_0" index="0" speed="13.89" length="96.80" shape="198.40,100.00 198.40,196.80"/>
    </edge>
    <edge id="E27" from="J28" to="J29" priority="-1">
        <lane id="E27_0" index="0" speed="13.89" length="96.80" shape="203.20,201.60 300.00,201.60"/>
    </edge>
    <edge id="E28" from="J29" to="J30" priority="-1">
        <lane id="E28_0" index="0" speed="13.89" length="100.00" shape="300.00,201.60 400.00,201.60"/>
    </edge>
    <edge id="E29" from="J30" to="J31" priority="-1">
        <lane id="E29_0" index="0" speed="13.89" length="100.00" shape="400.00,201.60 500.00,201.60"/>
    </edge>
    <edge id="E3" from="J2" to="J3" priority="-1">
        <lane id="E3_0" index="0" speed="13.89" length="100.00" shape="100.00,-1.60 0.00,-1.60"/>
    </edge>
    <edge id="E30" from="J31" to="J32" priority="-1">
        <lane id="E30_0" index="0" speed="13.89" length="100.00" shape="500.00,201.60 600.00,201.60"/>
    </edge>
    <edge id="E31" from="J32" to="J33" priority="-1">
        <lane id="E31_0" index="0" speed="13.89" length="100.00" shape="600.00,201.60 700.00,201.60"/>
    </edge>
    <edge id="E32" from="J33" to="J34" priority="-1">
        <lane id="E32_0" index="0" speed="13.89" length="100.00" shape="700.00,201.60 800.00,201.60"/>
    </edge>
    <edge id="E33" from="J34" to="J35" priority="-1">
        <lane id="E33_0" index="0" speed="13.89" length="100.00" shape="800.00,201.60 900.00,201.60"/>
    </edge>
    <edge id="E34" from="J35" to="J36" priority="-1">
        <lane id="E34_0" index="0" speed="13.89" length="96.80" shape="900.00,201.60 996.80,201.60"/>
    </edge>
    <edge id="E35" from="J36" to="J37" priority="-1">
        <lane id="E35_0" index="0" speed="13.89" length="96.65" shape="1001.60,196.80 1001.60,100.15"/>
    </edge>
    <edge id="E36" from="J37" to="J38" priority="-1">
        <lane id="E36_0" index="0" speed="13.89" length="77.26" shape="1001.60,99.84 1001.33,22.59"/>
    </edge>
    <edge id="E37" from="J38" to="J39" priority="-1">
        <lane id="E37_0" index="0" speed="13.89" length="192.47" shape="1006.91,16.97 1199.38,16.66"/>
    </edge>
    <edge id="E4" from="J4" to="J5" priority="-1">
        <lane id="E4_0" index="0" speed="13.89" length="100.00" shape="400.00,1.60 500.00,1.60"/>
    </edge>
    <edge id="E5" from="J5" to="J6" priority="-1">
        <lane id="E5_0" index="0" speed="13.89" length="100.00" shape="500.00,1.60 600.00,1.60"/>
    </edge>
    <edge id="E6" from="J6" to="J7" priority="-1">
        <lane id="E6_0" index="0" speed="13.89" length="200.00" shape="600.00,1.60 800.00,1.60"/>
    </edge>
    <edge id="E7" from="J7" to="J8" priority="-1">
        <lane id="E7_0" index="0" speed="13.89" length="198.50" shape="800.00,1.60 998.50,1.60"/>
    </edge>
    <edge id="E8" from="J3" to="J9" priority="-1">
        <lane id="E8_0" index="0" speed="13.89" length="100.00" shape="0.00,-1.60 -100.00,-1.60"/>
    </edge>

    <junction id="J0" type="priority" x="300.00" y="0.00" incLanes="E0_0 -E1_0" intLanes=":J0_0_0 :J0_1_0" shape="300.00,-3.20 300.00,3.20 300.00,-3.20">
        <request index="0" response="00" foes="00" cont="0"/>
        <request index="1" response="00" foes="00" cont="0"/>
    </junction>
    <junction id="J1" type="priority" x="200.00" y="0.00" incLanes="E24_0 E1_0 -E25_0 -E2_0" intLanes=":J1_0_0 :J1_1_0 :J1_12_0 :J1_3_0 :J1_4_0 :J1_5_0 :J1_6_0 :J1_7_0 :J1_13_0 :J1_9_0 :J1_10_0 :J1_11_0" shape="196.80,-7.20 203.20,-7.20 203.64,-4.98 204.20,-4.20 204.98,-3.64 205.98,-3.31 207.20,-3.20 207.20,3.20 204.98,3.64 204.20,4.20 203.64,4.98 203.31,5.98 203.20,7.20 196.80,7.20 196.36,4.98 195.80,4.20 195.02,3.64 194.02,3.31 192.80,3.20 192.80,-3.20 195.02,-3.64 195.80,-4.20 196.36,-4.98 196.69,-5.98">
        <request index="0"  response="000000000000" foes="000100010000" cont="0"/>
        <request index="1"  response="000000000000" foes="111100110000" cont="0"/>
        <request index="2"  response="000011000000" foes="110111110000" cont="1"/>
        <request index="3"  response="000010000000" foes="100010000000" cont="0"/>
        <request index="4"  response="000110000111" foes="100110000111" cont="0"/>
        <request index="5"  response="011110000110" foes="111110000110" cont="0"/>
        <request index="6"  response="000000000000" foes="010000000100" cont="0"/>
        <request index="7"  response="000000000000" foes="110000111100" cont="0"/>
        <request index="8"  response="000000000111" foes="110000110111" cont="1"/>
        <request index="9"  response="000000000010" foes="000000100010" cont="0"/>
        <request index="10" response="000111000110" foes="000111100110" cont="0"/>
        <request index="11" response="000110111110" foes="000110111110" cont="0"/>
    </junction>
    <junction id="J11" type="dead_end" x="1200.00" y="0.00" incLanes="E17_0" intLanes="" shape="1200.00,3.20 1200.00,-0.00"/>
    <junction id="J12" type="priority" x="-1000.00" y="0.00" incLanes="E11_0" intLanes=":J12_0_0" shape="-998.50,-3.20 -998.50,3.20 -1001.50,-0.00 -1001.50,-3.20">
        <request index="0" response="0" foes="0" cont="0"/>
    </junction>
    <junction id="J13" type="dead_end" x="-1200.00" y="0.00" incLanes="E12_0" intLanes="" shape="-1200.00,-3.20 -1200.00,-0.00"/>
    <junction id="J14" type="dead_end" x="-400.00" y="-400.00" incLanes="" intLanes="" shape="-400.00,-400.00 -403.20,-400.00"/>
    <junction id="J15" type="priority" x="-400.00" y="-300.00" incLanes="E13_0 -E18_0" intLanes=":J15_0_0" shape="-403.20,-301.50 -400.00,-301.50 -396.80,-298.50 -403.20,-298.50">
        <request index="0" response="0" foes="0" cont="0"/>
    </junction>
    <junction id="J16" type="priority" x="-200.00" y="0.00" incLanes="E10_0 -E14_0" intLanes=":J16_0_0 :J16_1_0" shape="-200.00,-3.20 -200.00,3.20 -200.00,-3.20">
        <request index="0" response="00" foes="00" cont="0"/>
        <request index="1" response="00" foes="00" cont="0"/>
    </junction>
    <junction id="J17" type="priority" x="-400.00" y="0.00" incLanes="E20_0 E14_0 -E15_0" intLanes=":J17_0_0 :J17_1_0 :J17_2_0 :J17_3_0 :J17_4_0 :J17_6_0" shape="-403.20,-7.20 -396.80,-7.20 -396.36,-4.98 -395.80,-4.20 -395.02,-3.64 -394.02,-3.31 -392.80,-3.20 -392.80,3.20 -407.20,3.20 -407.20,-3.20 -404.98,-3.64 -404.20,-4.20 -403.64,-4.98 -403.31,-5.98">
        <request index="0" response="001000" foes="001000" cont="0"/>
        <request index="1" response="111000" foes="111000" cont="0"/>
        <request index="2" response="000000" foes="100000" cont="0"/>
        <request index="3" response="000000" foes="100011" cont="0"/>
        <request index="4" response="000000" foes="000010" cont="0"/>
        <request index="5" response="001100" foes="001110" cont="1"/>
    </junction>
    <junction id="J18" type="priority" x="-600.00" y="0.00" incLanes="E15_0 -E16_0" intLanes=":J18_0_0 :J18_1_0" shape="-600.00,-3.20 -600.00,3.20 -600.00,-3.20">
        <request index="0" response="00" foes="00" cont="0"/>