<?xml version="1.0" encoding="UTF-8"?>

<!-- generated on 2025-11-15 17:48:16 by Eclipse SUMO netedit Version 1.20.0
<configuration xmlns:xsi="http://www.w3.org/2001/XMLSchema-instance" xsi:noNamespaceSchemaLocation="http://sumo.dlr.de/xsd/neteditConfiguration.xsd">

    <input>
        <sumo-net-file value="/Users/kashiisamutakeshi/vehicle-assistant-system/scenarios/pervehicle/map_one/data/one_shelter_one_departure.net.xml"/>
    </input>

    <output>
        <output-file value="/Users/kashiisamutakeshi/vehicle-assistant-system/scenarios/pervehicle/map_one/data/one_shelter_one_departure.net.xml"/>
    </output>

    <processing>
        <geometry.min-radius.fix.railways value="false"/>
        <geometry.max-grade.fix value="false"/>
        <offset.disable-normalization value="true"/>
        <lefthand value="1"/>
    </processing>

    <junctions>
        <no-turnarounds value="true"/>
        <junctions.corner-detail value="5"/>
        <junctions.limit-turn-speed value="5.50"/>
        <rectangular-lane-cut value="0"/>
    </junctions>

    <pedestrian>
        <walkingareas value="0"/>
    </pedestrian>

</configuration>
-->

<net version="1.20" junctionCornerDetail="5" lefthand="true" limitTurnSpeed="5.50" xmlns:xsi="http://www.w3.org/2001/XMLSchema-instance" xsi:noNamespaceSchemaLocation="http://sumo.dlr.de/xsd/net_file.xsd">

    <location netOffset="0.00,0.00" convBoundary="-1200.00,-400.00,1200.30,200.00" origBoundary="-10000000000.00,-10000000000.00,10000000000.00,10000000000.00" projParameter="!"/>

    <edge id=":J0_0" function="internal">
        <lane id=":J0_0_0" index="0" speed="13.89" length="8.40" shape="304.00,-1.60 301.54,-2.10 300.00,-3.20 298.46,-4.30 296.00,-4.80"/>
        <lane id=":J0_0_1" index="1" speed="13.89" length="8.40" shape="304.00,-1.60 296.00,-1.60"/>
    </edge>
    <edge id=":J0_2" function="internal">
        <lane id=":J0_2_0" index="0" speed="13.89" length="8.81" shape="296.00,4.80 298.46,4.30 300.00,3.20 301.54,2.10 304.00,1.60"/>
    </edge>
    <edge id=":J1_0" function="internal">
        <lane id=":J1_0_0" index="0" speed="8.00" length="14.19" shape="195.20,-10.40 194.65,-6.55 193.00,-3.80 190.25,-2.15 186.40,-1.60"/>
    </edge>
    <edge id=":J1_1" function="internal">
        <lane id=":J1_1_0" index="0" speed="13.89" length="21.01" shape="195.20,-10.40 194.70,-4.41 193.60,-0.20 192.50,4.12 192.00,10.40"/>
        <lane id=":J1_1_1" index="1" speed="13.89" length="21.01" shape="198.40,-10.40 197.90,-4.41 196.80,-0.20 195.70,4.12 195.20,10.40"/>
        <lane id=":J1_1_2" index="2" speed="13.89" length="21.01" shape="198.40,-10.40 198.40,10.40"/>
    </edge>
    <edge id=":J1_4" function="internal">
        <lane id=":J1_4_0" index="0" speed="8.67" length="16.85" shape="198.40,-10.40 198.95,-5.15 200.60,-1.40 203.35,0.85 207.20,1.60"/>
    </edge>
    <edge id=":J1_5" function="internal">
        <lane id=":J1_5_0" index="0" speed="6.51" length="9.03" shape="207.20,-4.80 204.75,-5.15 203.00,-6.20 201.95,-7.95 201.60,-10.40"/>
    </edge>
    <edge id=":J1_6" function="internal">
        <lane id=":J1_6_0" index="0" speed="13.89" length="21.09" shape="207.20,-4.80 200.43,-4.30 194.93,-3.20 190.35,-2.10 186.40,-1.60"/>
    </edge>
    <edge id=":J1_7" function="internal">
        <lane id=":J1_7_0" index="0" speed="8.67" length="3.71" shape="207.20,-1.60 203.56,-0.89"/>
    </edge>
    <edge id=":J1_15" function="internal">
        <lane id=":J1_15_0" index="0" speed="8.67" length="13.14" shape="203.56,-0.89 203.35,-0.85 200.60,1.40 198.95,5.15 198.40,10.40"/>
    </edge>
    <edge id=":J1_8" function="internal">
        <lane id=":J1_8_0" index="0" speed="6.51" length="9.03" shape="201.60,10.40 201.95,7.95 203.00,6.20 204.75,5.15 207.20,4.80"/>
    </edge>
    <edge id=":J1_9" function="internal">
        <lane id=":J1_9_0" index="0" speed="13.89" length="20.80" shape="201.60,10.40 201.60,-10.40"/>
    </edge>
    <edge id=":J1_10" function="internal">
        <lane id=":J1_10_0" index="0" speed="9.84" length="21.99" shape="201.60,10.40 200.65,5.15 197.80,1.40 193.05,-0.85 186.40,-1.60"/>
    </edge>
    <edge id=":J1_11" function="internal">
        <lane id=":J1_11_0" index="0" speed="6.51" length="9.03" shape="186.40,4.80 188.85,5.15 190.60,6.20 191.65,7.95 192.00,10.40"/>
    </edge>
    <edge id=":J1_12" function="internal">
        <lane id=":J1_12_0" index="0" speed="13.89" length="20.80" shape="186.40,4.80 207.20,4.80"/>
        <lane id=":J1_12_1" index="1" speed="13.89" length="20.80" shape="186.40,1.60 207.20,1.60"/>
    </edge>
    <edge id=":J1_14" function="internal">
        <lane id=":J1_14_0" index="0" speed="9.84" length="11.05" shape="186.40,1.60 193.05,0.85 196.99,-1.02"/>
    </edge>
    <edge id=":J1_16" function="internal">
        <lane id=":J1_16_0" index="0" speed="9.84" length="10.94" shape="196.99,-1.02 197.80,-1.40 200.65,-5.15 201.60,-10.40"/>
    </edge>
    <edge id=":J10_0" function="internal">
        <lane id=":J10_0_0" index="0" speed="3.90" length="2.56" shape="1002.95,196.81 1002.84,197.51 1002.54,198.00 1002.04,198.30 1001.35,198.40"/>
    </edge>
    <edge id=":J10_1" function="internal">
        <lane id=":J10_1_0" index="0" speed="6.08" length="7.69" shape="1001.35,201.60 1003.43,201.30 1004.93,200.41 1005.83,198.92 1006.15,196.84"/>
    </edge>
    <edge id=":J12_0" function="internal">
        <lane id=":J12_0_0" index="0" speed="13.89" length="3.00" shape="-998.50,-1.60 -1001.50,-1.60"/>
    </edge>
    <edge id=":J15_0" function="internal">
        <lane id=":J15_0_0" index="0" speed="13.89" length="3.00" shape="-401.60,-301.50 -401.60,-298.50"/>
    </edge>
    <edge id=":J16_0" function="internal">
        <lane id=":J16_0_0" index="0" speed="13.89" length="0.10" shape="-200.00,-1.60 -200.00,-1.60"/>
    </edge>
    <edge id=":J16_1" function="internal">
        <lane id=":J16_1_0" index="0" speed="13.89" length="0.10" shape="-200.00,1.60 -200.00,1.60"/>
    </edge>
    <edge id=":J17_0" function="internal">
        <lane id=":J17_0_0" index="0" speed="6.51" length="9.03" shape="-404.80,-10.40 -405.15,-7.95 -406.20,-6.20 -407.95,-5.15 -410.40,-4.80"/>
        <lane id=":J17_0_1" index="1" speed="8.00" length="14.19" shape="-401.60,-10.40 -402.15,-6.55 -403.80,-3.80 -406.55,-2.15 -410.40,-1.60"/>
    </edge>
    <edge id=":J17_2" function="internal">
        <lane id=":J17_2_0" index="0" speed="8.67" length="16.85" shape="-401.60,-10.40 -401.05,-5.15 -399.40,-1.40 -396.65,0.85 -392.80,1.60"/>
    </edge>
    <edge id=":J17_3" function="internal">
        <lane id=":J17_3_0" index="0" speed="7.33" length="11.73" shape="-392.80,-1.60 -395.25,-2.15 -397.00,-3.80 -398.05,-6.55 -398.40,-10.40"/>
    </edge>
    <edge id=":J17_4" function="internal">
        <lane id=":J17_4_0" index="0" speed="13.89" length="17.77" shape="-392.80,-1.60 -396.40,-2.10 -400.12,-3.20 -404.58,-4.30 -410.40,-4.80"/>
        <lane id=":J17_4_1" index="1" speed="13.89" length="17.77" shape="-392.80,-1.60 -410.40,-1.60"/>
    </edge>
    <edge id=":J17_6" function="internal">
        <lane id=":J17_6_0" index="0" speed="13.89" length="17.60" shape="-410.40,1.60 -392.80,1.60"/>
    </edge>
    <edge id=":J17_7" function="internal">
        <lane id=":J17_7_0" index="0" speed="9.26" length="19.35" shape="-410.40,1.60 -405.15,0.85 -401.40,-1.40 -399.15,-5.15 -398.40,-10.40"/>
    </edge>
    <edge id=":J18_0" function="internal">
        <lane id=":J18_0_0" index="0" speed="13.89" length="8.81" shape="-596.00,-4.80 -598.46,-4.30 -600.00,-3.20 -601.54,-2.10 -604.00,-1.60"/>
    </edge>
    <edge id=":J18_1" function="internal">
        <lane id=":J18_1_0" index="0" speed="13.89" length="8.00" shape="-604.00,1.60 -596.00,1.60"/>
    </edge>
    <edge id=":J19_0" function="internal">
        <lane id=":J19_0_0" index="0" speed="13.89" length="0.10" shape="-800.00,-1.60 -800.00,-1.60"/>
    </edge>
    <edge id=":J19_1" function="internal">
        <lane id=":J19_1_0" index="0" speed="13.89" length="0.10" shape="-800.00,1.60 -800.00,1.60"/>
    </edge>
    <edge id=":J2_0" function="internal">
        <lane id=":J2_0_0" index="0" speed="13.89" length="8.00" shape="104.00,-1.60 96.00,-1.60"/>
    </edge>
    <edge id=":J2_1" function="internal">
        <lane id=":J2_1_0" index="0" speed="13.89" length="8.40" shape="96.00,1.60 98.46,2.10 100.00,3.20 101.54,4.30 104.00,4.80"/>
        <lane id=":J2_1_1" index="1" speed="13.89" length="8.40" shape="96.00,1.60 104.00,1.60"/>
    </edge>
    <edge id=":J20_0" function="internal">
        <lane id=":J20_0_0" index="0" speed="13.89" length="0.10" shape="-401.60,-200.00 -401.60,-200.00"/>
    </edge>
    <edge id=":J20_1" function="internal">
        <lane id=":J20_1_0" index="0" speed="13.89" length="0.10" shape="-398.40,-200.00 -398.40,-200.00"/>
    </edge>
    <edge id=":J21_0" function="internal">
        <lane id=":J21_0_0" index="0" speed="13.89" length="8.40" shape="-401.60,-104.00 -402.10,-101.54 -403.20,-100.00 -404.30,-98.46 -404.80,-96.00"/>
        <lane id=":J21_0_1" index="1" speed="13.89" length="8.40" shape="-401.60,-104.00 -401.60,-96.00"/>
    </edge>
    <edge id=":J21_2" function="internal">
        <lane id=":J21_2_0" index="0" speed="13.89" length="8.00" shape="-398.40,-96.00 -398.40,-104.00"/>
    </edge>
    <edge id=":J24_0" function="internal">
        <lane id=":J24_0_0" index="0" speed="13.89" length="3.00" shape="198.40,-301.50 198.40,-298.50"/>
    </edge>
    <edge id=":J25_0" function="internal">
        <lane id=":J25_0_0" index="0" speed="13.89" length="0.10" shape="198.40,-200.00 198.40,-200.00"/>
    </edge>
    <edge id=":J25_1" function="internal">
        <lane id=":J25_1_0" index="0" speed="13.89" length="0.10" shape="201.60,-200.00 201.60,-200.00"/>
    </edge>
    <edge id=":J26_0" function="internal">
        <lane id=":J26_0_0" index="0" speed="13.89" length="8.40" shape="198.40,-104.00 197.90,-101.54 196.80,-100.00 195.70,-98.46 195.20,-96.00"/>
        <lane id=":J26_0_1" index="1" speed="13.89" length="8.40" shape="198.40,-104.00 198.40,-96.00"/>
    </edge>
    <edge id=":J26_2" function="internal">
        <lane id=":J26_2_0" index="0" speed="13.89" length="8.00" shape="201.60,-96.00 201.60,-104.00"/>
    </edge>
    <edge id=":J27_0" function="internal">
        <lane id=":J27_0_0" index="0" speed="13.89" length="10.85" shape="192.00,96.00 193.00,98.71 195.20,100.05 197.40,101.36 198.40,104.00"/>
    </edge>
    <edge id=":J27_1" function="internal">
        <lane id=":J27_1_0" index="0" speed="13.89" length="8.00" shape="201.60,104.00 201.60,96.00"/>
    </edge>
    <edge id=":J28_0" function="internal">
        <lane id=":J28_0_0" index="0" speed="6.08" length="7.74" shape="198.40,196.80 198.70,198.90 199.60,200.40 201.10,201.30 203.20,201.60"/>
    </edge>
    <edge id=":J28_1" function="internal">
        <lane id=":J28_1_0" index="0" speed="3.90" length="2.58" shape="203.20,198.40 202.50,198.30 202.00,198.00 201.70,197.50 201.60,196.80"/>
    </edge>
    <edge id=":J29_0" function="internal">
        <lane id=":J29_0_0" index="0" speed="13.89" length="0.10" shape="300.00,198.40 300.00,198.40"/>
    </edge>
    <edge id=":J29_1" function="internal">
        <lane id=":J29_1_0" index="0" speed="13.89" length="0.10" shape="300.00,201.60 300.00,201.60"/>
    </edge>
    <edge id=":J3_0" function="internal">
        <lane id=":J3_0_0" index="0" speed="13.89" length="0.10" shape="0.00,-1.60 0.00,-1.60"/>
    </edge>
    <edge id=":J3_1" function="internal">
        <lane id=":J3_1_0" index="0" speed="13.89" length="0.10" shape="0.00,1.60 0.00,1.60"/>
    </edge>
    <edge id=":J30_0" function="internal">
        <lane id=":J30_0_0" index="0" speed="13.89" length="0.10" shape="400.00,198.40 400.00,198.40"/>
    </edge>
    <edge id=":J30_1" function="internal">
        <lane id=":J30_1_0" index="0" speed="13.89" length="0.10" shape="400.00,201.60 400.00,201.60"/>
    </edge>
    <edge id=":J31_0" function="internal">
        <lane id=":J31_0_0" index="0" speed="13.89" length="0.10" shape="500.00,198.40 500.00,198.40"/>
    </edge>
    <edge id=":J31_1" function="internal">
        <lane id=":J31_1_0" index="0" speed="13.89" length="0.10" shape="500.00,201.60 500.00,201.60"/>
    </edge>
    <edge id=":J32_0" function="internal">
        <lane id=":J32_0_0" index="0" speed="13.89" length="0.10" shape="600.00,198.40 600.00,198.40"/>
    </edge>
    <edge id=":J32_1" function="internal">
        <lane id=":J32_1_0" index="0" speed="13.89" length="0.10" shape="600.00,201.60 600.00,201.60"/>
    </edge>
    <edge id=":J33_0" function="internal">
        <lane id=":J33_0_0" index="0" speed="13.89" length="0.10" shape="700.00,198.40 700.00,198.40"/>
    </edge>
    <edge id=":J33_1" function="internal">
        <lane id=":J33_1_0" index="0" speed="13.89" length="0.10" shape="700.00,201.60 700.00,201.60"/>
    </edge>
    <edge id=":J34_0" function="internal">
        <lane id=":J34_0_0" index="0" speed="13.89" length="0.10" shape="800.00,198.40 800.00,198.40"/>
    </edge>
    <edge id=":J34_1" function="internal">
        <lane id=":J34_1_0" index="0" speed="13.89" length="0.10" shape="800.00,201.60 800.00,201.60"/>
    </edge>
    <edge id=":J35_0" function="internal">
        <lane id=":J35_0_0" index="0" speed="13.89" length="0.10" shape="900.00,198.40 900.00,198.40"/>
    </edge>
    <edge id=":J35_1" function="internal">
        <lane id=":J35_1_0" index="0" speed="13.89" length="0.10" shape="900.00,201.60 900.00,201.60"/>
    </edge>
    <edge id=":J37_0" function="internal">
        <lane id=":J37_0_0" index="0" speed="13.89" length="0.31" shape="1007.04,99.24 1007.04,98.93"/>
    </edge>
    <edge id=":J37_1" function="internal">
        <lane id=":J37_1_0" index="0" speed="13.89" length="0.28" shape="1003.84,98.94 1003.84,99.21"/>
    </edge>
    <edge id=":J38_0" function="internal">
        <lane id=":J38_0_0" index="0" speed="6.50" length="9.03" shape="1006.85,17.54 1007.19,15.08 1008.24,13.33 1009.99,12.28 1012.44,11.93"/>
    </edge>
    <edge id=":J4_0" function="internal">
        <lane id=":J4_0_0" index="0" speed="13.89" length="0.10" shape="400.00,-1.60 400.00,-1.60"/>
    </edge>
    <edge id=":J4_1" function="internal">
        <lane id=":J4_1_0" index="0" speed="13.89" length="0.10" shape="400.00,1.60 400.00,1.60"/>
    </edge>
    <edge id=":J5_0" function="internal">
        <lane id=":J5_0_0" index="0" speed="13.89" length="0.10" shape="500.00,-1.60 500.00,-1.60"/>
    </edge>
    <edge id=":J5_1" function="internal">
        <lane id=":J5_1_0" index="0" speed="13.89" length="0.10" shape="500.00,1.60 500.00,1.60"/>
    </edge>
    <edge id=":J6_0" function="internal">
        <lane id=":J6_0_0" index="0" speed="13.89" length="0.10" shape="600.00,-1.60 600.00,-1.60"/>
    </edge>
    <edge id=":J6_1" function="internal">
        <lane id=":J6_1_0" index="0" speed="13.89" length="0.10" shape="600.00,1.60 600.00,1.60"/>
    </edge>
    <edge id=":J7_0" function="internal">
        <lane id=":J7_0_0" index="0" speed="13.89" length="0.10" shape="800.00,-1.60 800.00,-1.60"/>
    </edge>
    <edge id=":J7_1" function="internal">
        <lane id=":J7_1_0" index="0" speed="13.89" length="0.10" shape="800.00,1.60 800.00,1.60"/>
    </edge>
    <edge id=":J8_0" function="internal">
        <lane id=":J8_0_0" index="0" speed="13.89" length="3.00" shape="998.50,1.60 1001.50,1.60"/>
    </edge>
    <edge id=":J9_0" function="internal">
        <lane id=":J9_0_0" index="0" speed="13.89" length="0.10" shape="-100.00,-1.60 -100.00,-1.60"/>
    </edge>
    <edge id=":J9_1" function="internal">
        <lane id=":J9_1_0" index="0" speed="13.89" length="0.10" shape="-100.00,1.60 -100.00,1.60"/>
    </edge>

    <edge id="-E0" from="J0" to="J4" priority="-1">
        <lane id="-E0_0" index="0" speed="13.89" length="96.00" shape="304.00,1.60 400.00,1.60"/>
    </edge>
    <edge id="-E1" from="J1" to="J0" priority="-1">
        <lane id="-E1_0" index="0" speed="13.89" length="88.80" shape="207.20,4.80 296.00,4.80"/>
        <lane id="-E1_1" index="1" speed="13.89" length="88.80" shape="207.20,1.60 296.00,1.60"/>
    </edge>
    <edge id="-E10" from="J16" to="J9" priority="-1">
        <lane id="-E10_0" index="0" speed="13.89" length="100.00" shape="-200.00,1.60 -100.00,1.60"/>
    </edge>
    <edge id="-E11" from="J12" to="J19" priority="-1">
        <lane id="-E11_0" index="0" speed="13.89" length="198.50" shape="-998.50,1.60 -800.00,1.60"/>
    </edge>
    <edge id="-E14" from="J17" to="J16" priority="-1">
        <lane id="-E14_0" index="0" speed="13.89" length="192.80" shape="-392.80,1.60 -200.00,1.60"/>
    </edge>
    <edge id="-E15" from="J18" to="J17" priority="-1">
        <lane id="-E15_0" index="0" speed="13.89" length="185.60" shape="-596.00,1.60 -410.40,1.60"/>
    </edge>
    <edge id="-E16" from="J19" to="J18" priority="-1">
        <lane id="-E16_0" index="0" speed="13.89" length="196.00" shape="-800.00,1.60 -604.00,1.60"/>
    </edge>
    <edge id="-E18" from="J20" to="J15" priority="-1">
        <lane id="-E18_0" index="0" speed="13.89" length="98.50" shape="-398.40,-200.00 -398.40,-298.50"/>
    </edge>
    <edge id="-E19" from="J21" to="J20" priority="-1">
        <lane id="-E19_0" index="0" speed="13.89" length="96.00" shape="-398.40,-104.00 -398.40,-200.00"/>
    </edge>
    <edge id="-E2" from="J2" to="J1" priority="-1">
        <lane id="-E2_0" index="0" speed="13.89" length="82.40" shape="104.00,4.80 186.40,4.80"/>
        <lane id="-E2_1" index="1" speed="13.89" length="82.40" shape="104.00,1.60 186.40,1.60"/>
    </edge>
    <edge id="-E20" from="J17" to="J21" priority="-1">
        <lane id="-E20_0" index="0" speed="13.89" length="85.60" shape="-398.40,-10.40 -398.40,-96.00"/>
    </edge>
    <edge id="-E22" from="J25" to="J24" priority="-1">
        <lane id="-E22_0" index="0" speed="13.89" length="98.50" shape="201.60,-200.00 201.60,-298.50"/>
    </edge>
    <edge id="-E23" from="J26" to="J25" priority="-1">
        <lane id="-E23_0" index="0" speed="13.89" length="96.00" shape="201.60,-104.00 201.60,-200.00"/>
    </edge>
    <edge id="-E24" from="J1" to="J26" priority="-1">
        <lane id="-E24_0" index="0" speed="13.89" length="85.60" shape="201.60,-10.40 201.60,-96.00"/>
    </edge>
    <edge id="-E25" from="J27" to="J1" priority="-1">
        <lane id="-E25_0" index="0" speed="13.89" length="85.60" shape="201.60,96.00 201.60,10.40"/>
    </edge>
    <edge id="-E26" from="J28" to="J27" priority="-1">
        <lane id="-E26_0" index="0" speed="13.89" length="92.80" shape="201.60,196.80 201.60,104.00"/>
    </edge>
    <edge id="-E27" from="J29" to="J28" priority="-1">
        <lane id="-E27_0" index="0" speed="13.89" length="96.80" shape="300.00,198.40 203.20,198.40"/>
    </edge>
    <edge id="-E28" from="J30" to="J29" priority="-1">
        <lane id="-E28_0" index="0" speed="13.89" length="100.00" shape="400.00,198.40 300.00,198.40"/>
    </edge>
    <edge id="-E29" from="J31" to="J30" priority="-1">
        <lane id="-E29_0" index="0" speed="13.89" length="100.00" shape="500.00,198.40 400.00,198.40"/>
    </edge>
    <edge id="-E3" from="J3" to="J2" priority="-1">
        <lane id="-E3_0" index="0" speed="13.89" length="96.00" shape="0.00,1.60 96.00,1.60"/>
    </edge>
    <edge id="-E30" from="J32" to="J31" priority="-1">
        <lane id="-E30_0" index="0" speed="13.89" length="100.00" shape="600.00,198.40 500.00,198.40"/>
    </edge>
    <edge id="-E31" from="J33" to="J32" priority="-1">
        <lane id="-E31_0" index="0" speed="13.89" length="100.00" shape="700.00,198.40 600.00,198.40"/>
    </edge>
    <edge id="-E32" from="J34" to="J33" priority="-1">
        <lane id="-E32_0" index="0" speed="13.89" length="100.00" shape="800.00,198.40 700.00,198.40"/>
    </edge>
    <edge id="-E33" from="J35" to="J34" priority="-1">
        <lane id="-E33_0" index="0" speed="13.89" length="100.00" shape="900.00,198.40 800.00,198.40"/>
    </edge>
    <edge id="-E34" from="J35" to="J10" priority="-1">
        <lane id="-E34_0" index="0" speed="13.89" length="101.35" shape="900.00,201.60 1001.35,201.60"/>
    </edge>
    <edge id="-E36" from="J38" to="J37" priority="-1">
        <lane id="-E36_0" index="0" speed="13.89" length="81.39" shape="1003.65,17.54 1003.84,98.94"/>
    </edge>
    <edge id="-E4" from="J5" to="J4" priority="-1">
        <lane id="-E4_0" index="0" speed="13.89" length="100.00" shape="500.00,-1.60 400.00,-1.60"/>
    </edge>
    <edge id="-E5" from="J6" to="J5" priority="-1">
        <lane id="-E5_0" index="0" speed="13.89" length="100.00" shape="600.00,-1.60 500.00,-1.60"/>
    </edge>
    <edge id="-E6" from="J7" to="J6" priority="-1">
        <lane id="-E6_0" index="0" speed="13.89" length="200.00" shape="800.00,-1.60 600.00,-1.60"/>
    </edge>
    <edge id="-E7" from="J8" to="J7" priority="-1">
        <lane id="-E7_0" index="0" speed="13.89" length="198.50" shape="998.50,-1.60 800.00,-1.60"/>
    </edge>
    <edge id="-E8" from="J9" to="J3" priority="-1">
        <lane id="-E8_0" index="0" speed="13.89" length="100.00" shape="-100.00,1.60 0.00,1.60"/>
    </edge>
    <edge id="-E9" from="J10" to="J37" priority="-1">
        <lane id="-E9_0" index="0" speed="13.89" length="97.61" shape="1006.15,196.84 1007.04,99.24"/>
    </edge>
    <edge id="E0" from="J4" to="J0" priority="-1">
        <lane id="E0_0" index="0" speed="13.89" length="96.00" shape="400.00,-1.60 304.00,-1.60"/>
    </edge>
    <edge id="E1" from="J0" to="J1" priority="-1">
        <lane id="E1_0" index="0" speed="13.89" length="88.80" shape="296.00,-4.80 207.20,-4.80"/>
        <lane id="E1_1" index="1" speed="13.89" length="88.80" shape="296.00,-1.60 207.20,-1.60"/>
    </edge>
    <edge id="E10" from="J9" to="J16" priority="-1">
        <lane id="E10_0" index="0" speed="13.89" length="100.00" shape="-100.00,-1.60 -200.00,-1.60"/>
    </edge>
    <edge id="E11" from="J19" to="J12" priority="-1">
        <lane id="E11_0" index="0" speed="13.89" length="198.50" shape="-800.00,-1.60 -998.50,-1.60"/>
    </edge>
    <edge id="E12" from="J12" to="J13" priority="-1">
        <lane id="E12_0" index="0" speed="13.89" length="198.50" shape="-1001.50,-1.60 -1200.00,-1.60"/>
    </edge>
    <edge id="E13" from="J14" to="J15" priority="-1">
        <lane id="E13_0" index="0" speed="13.89" length="98.50" shape="-401.60,-400.00 -401.60,-301.50"/>
    </edge>
    <edge id="E14" from="J16" to="J17" priority="-1" shape="-200.00,0.00 -300.00,0.00 -400.00,0.00">
        <lane id="E14_0" index="0" speed="13.89" length="192.80" shape="-200.00,-1.60 -300.00,-1.60 -392.80,-1.60"/>
    </edge>
    <edge id="E15" from="J17" to="J18" priority="-1">
        <lane id="E15_0" index="0" speed="13.89" length="185.60" shape="-410.40,-4.80 -596.00,-4.80"/>
        <lane id="E15_1" index="1" speed="13.89" length="185.60" shape="-410.40,-1.60 -596.00,-1.60"/>
    </edge>
    <edge id="E16" from="J18" to="J19" priority="-1">
        <lane id="E16_0" index="0" speed="13.89" length="196.00" shape="-604.00,-1.60 -800.00,-1.60"/>
    </edge>
    <edge id="E17" from="J8" to="J11" priority="-1">
        <lane id="E17_0" index="0" speed="13.89" length="198.50" shape="1001.50,1.60 1200.00,1.60"/>
    </edge>
    <edge id="E18" from="J15" to="J20" priority="-1">
        <lane id="E18_0" index="0" speed="13.89" length="98.50" shape="-401.60,-298.50 -401.60,-200.00"/>
    </edge>
    <edge id="E19" from="J20" to="J21" priority="-1">
        <lane id="E19_0" index="0" speed="13.89" length="96.00" shape="-401.60,-200.00 -401.60,-104.00"/>
    </edge>
    <edge id="E2" from="J1" to="J2" priority="-1">
        <lane id="E2_0" index="0" speed="13.89" length="82.40" shape="186.40,-1.60 104.00,-1.60"/>
    </edge>
    <edge id="E20" from="J21" to="J17" priority="-1">
        <lane id="E20_0" index="0" speed="13.89" length="85.60" shape="-404.80,-96.00 -404.80,-10.40"/>
        <lane id="E20_1" index="1" speed="13.89" length="85.60" shape="-401.60,-96.00 -401.60,-10.40"/>
    </edge>
    <edge id="E21" from="J23" to="J24" priority="-1">
        <lane id="E21_0" index="0" speed="13.89" length="98.50" shape="198.40,-400.00 198.40,-301.50"/>
    </edge>
    <edge id="E22" from="J24" to="J25" priority="-1">
        <lane id="E22_0" index="0" speed="13.89" length="98.50" shape="198.40,-298.50 198.40,-200.00"/>
    </edge>
    <edge id="E23" from="J25" to="J26" priority="-1">
        <lane id="E23_0" index="0" speed="13.89" length="96.00" shape="198.40,-200.00 198.40,-104.00"/>
    </edge>
    <edge id="E24" from="J26" to="J1" priority="-1">
        <lane id="E24_0" index="0" speed="13.89" length="85.60" shape="195.20,-96.00 195.20,-10.40"/>
        <lane id="E24_1" index="1" speed="13.89" length="85.60" shape="198.40,-96.00 198.40,-10.40"/>
    </edge>
    <edge id="E25" from="J1" to="J27" priority="-1">
        <lane id="E25_0" index="0" speed="13.89" length="85.60" shape="192.00,10.40 192.00,96.00"/>
        <lane id="E25_1" index="1" speed="13.89" length="85.60" shape="195.20,10.40 195.20,96.00"/>
        <lane id="E25_2" index="2" speed="13.89" length="85.60" shape="198.40,10.40 198.40,96.00"/>
    </edge>
    <edge id="E26" from="J27" to="J28" priority="-1">
        <lane id="E26_0" index="0" speed="13.89" length="92.80" shape="198.40,104.00 198.40,196.80"/>
    </edge>
    <edge id="E27" from="J28" to="J29" priority="-1">
        <lane id="E27_0" index="0" speed="13.89" length="96.80" shape="203.20,201.60 300.00,201.60"/>
    </edge>
    <edge id="E28" from="J29" to="J30" priority="-1">
        <lane id="E28_0" index="0" speed="13.89" length="100.00" shape="300.00,201.60 400.00,201.60"/>
    </edge>
    <edge id="E29" from="J30" to="J31" priority="-1">
        <lane id="E29_0" index="0" speed="13.89" length="100.00" shape="400.00,201.60 500.00,201.60"/>
    </edge>
    <edge id="E3" from="J2" to="J3" priority="-1">
        <lane id="E3_0" index="0" speed="13.89" length="96.00" shape="96.00,-1.60 0.00,-1.60"/>
    </edge>
    <edge id="E30" from="J31" to="J32" priority="-1">
        <lane id="E30_0" index="0" speed="13.89" length="100.00" shape="500.00,201.60 600.00,201.60"/>
    </edge>
    <edge id="E31" from="J32" to="J33" priority="-1">
        <lane id="E31_0" index="0" speed="13.89" length="100.00" shape="600.00,201.60 700.00,201.60"/>
    </edge>
    <edge id="E32" from="J33" to="J34" priority="-1">
        <lane id="E32_0" index="0" speed="13.89" length="100.00" shape="700.00,201.60 800.00,201.60"/>
    </edge>
    <edge id="E33" from="J34" to="J35" priority="-1">
        <lane id="E33_0" index="0" speed="13.89" length="100.00" shape="800.00,201.60 900.00,201.60"/>
    </edge>
    <edge id="E34" from="J10" to="J35" priority="-1">
        <lane id="E34_0" index="0" speed="13.89" length="101.35" shape="1001.35,198.40 900.00,198.40"/>
    </edge>
    <edge id="E36" from="J37" to="J38" priority="-1">
        <lane id="E36_0" index="0" speed="13.89" length="81.39" shape="1007.04,98.93 1006.85,17.54"/>
    </edge>
    <edge id="E37" from="J38" to="J39" priority="-1">
        <lane id="E37_0" index="0" speed="13.89" length="187.86" shape="1012.44,11.93 1200.30,12.06"/>
    </edge>
    <edge id="E4" from="J4" to="J5" priority="-1">
        <lane id="E4_0" index="0" speed="13.89" length="100.00" shape="400.00,1.60 500.00,1.60"/>
    </edge>
    <edge id="E5" from="J5" to="J6" priority="-1">
        <lane id="E5_0" index="0" speed="13.89" length="100.00" shape="500.00,1.60 600.00,1.60"/>
    </edge>
    <edge id="E6" from="J6" to="J7" priority="-1">
        <lane id="E6_0" index="0" speed="13.89" length="200.00" shape="600.00,1.60 800.00,1.60"/>
    </edge>
    <edge id="E7" from="J7" to="J8" priority="-1">
        <lane id="E7_0" index="0" speed="13.89" length="198.50" shape="800.00,1.60 998.50,1.60"/>
    </edge>
    <edge id="E8" from="J3" to="J9" priority="-1">
        <lane id="E8_0" index="0" speed="13.89" length="100.00" shape="0.00,-1.60 -100.00,-1.60"/>
    </edge>
    <edge id="E9" from="J37" to="J10" priority="-1">
        <lane id="E9_0" index="0" speed="13.89" length="97.61" shape="1003.84,99.21 1002.95,196.81"/>
    </edge>

    <junction id="J0" type="priority" x="300.00" y="0.00" incLanes="E0_0 -E1_0 -E1_1" intLanes=":J0_0_0 :J0_0_1 :J0_2_0" shape="304.00,-3.20 304.00,3.20 300.97,4.03 299.03,5.57 297.79,6.16 296.00,6.40 296.00,-6.40 299.03,-5.57 300.97,-4.03 302.21,-3.44">
        <request index="0" response="000" foes="000" cont="0"/>
        <request index="1" response="000" foes="000" cont="0"/>
        <request index="2" response="000" foes="000" cont="0"/>
    </junction>
    <junction id="J1" type="priority" x="200.00" y="0.00" incLanes="E24_0 E24_1 E1_0 E1_1 -E25_0 -E2_0 -E2_1" intLanes=":J1_0_0 :J1_1_0 :J1_1_1 :J1_1_2 :J1_4_0 :J1_5_0 :J1_6_0 :J1_15_0 :J1_8_0 :J1_9_0 :J1_10_0 :J1_11_0 :J1_12_0 :J1_12_1 :J1_16_0" shape="193.60,-10.40 203.20,-10.40 203.64,-8.18 204.20,-7.40 204.98,-6.84 205.98,-6.51 207.20,-6.40 207.20,6.40 204.98,6.84 204.20,7.40 203.64,8.18 203.31,9.18 203.20,10.40 190.40,10.40 189.96,8.18 189.40,7.40 188.62,6.84 187.62,6.51 186.40,6.40 186.40,-3.20 188.60,-3.40 190.40,-4.00 191.80,-5.00 192.80,-6.40 193.40,-8.20">
        <request index="0"  response="000000001000000" foes="000010001000000" cont="0"/>
        <request index="1"  response="111100011000000" foes="111110011000000" cont="0"/>
        <request index="2"  response="111100011000000" foes="111110011000000" cont="0"/>
        <request index="3"  response="111100011000000" foes="111110011000000" cont="0"/>
        <request index="4"  response="111001011000000" foes="111001011000000" cont="0"/>
        <request index="5"  response="000000000000000" foes="100001000000000" cont="0"/>
        <request index="6"  response="000000000000000" foes="100011000011111" cont="0"/>
        <request index="7"  response="011000000000000" foes="011011000011110" cont="1"/>