<?xml version="1.0" encoding="UTF-8"?>

<!-- generated on 2026-04-10 00:10:05 by Eclipse SUMO netedit Version 1.20.0
<configuration xmlns:xsi="http://www.w3.org/2001/XMLSchema-instance" xsi:noNamespaceSchemaLocation="http://sumo.dlr.de/xsd/neteditConfiguration.xsd">

    <input>
        <sumo-net-file value="/Users/kashiisamutakeshi/vehicle-assistant-system/scenarios/its105/map_one/data/ishinomaki_toymap.net.xml"/>
    </input>

    <output>
        <output-file value="/Users/kashiisamutakeshi/vehicle-assistant-system/scenarios/its105/map_one/data/ishinomaki_toymap.net.xml"/>
    </output>

    <processing>
        <geometry.min-radius.fix.railways value="false"/>
        <geometry.max-grade.fix value="false"/>
        <offset.disable-normalization value="true"/>
        <lefthand value="1"/>
    </processing>

    <junctions>
        <no-turnarounds value="true"/>
        <junctions.corner-detail value="5"/>
        <junctions.limit-turn-speed value="5.50"/>
        <rectangular-lane-cut value="0"/>
    </junctions>

    <pedestrian>
        <walkingareas value="0"/>
    </pedestrian>

</configuration>
-->

<net version="1.20" junctionCornerDetail="5" lefthand="true" limitTurnSpeed="5.50" xmlns:xsi="http://www.w3.org/2001/XMLSchema-instance" xsi:noNamespaceSchemaLocation="http://sumo.dlr.de/xsd/net_file.xsd">

    <location netOffset="-520703.59,-4250601.64" convBoundary="4000.20,2759.51,11028.38,6227.14" origBoundary="141.237328,38.305646,141.419841,38.482093" projParameter="+proj=utm +zone=54 +ellps=WGS84 +datum=WGS84 +units=m +no_defs"/>

    <type id="highway.tertiary" priority="10" numLanes="1" speed="22.22" disallow="tram rail_urban rail rail_electric rail_fast ship container cable_car subway aircraft wheelchair scooter drone" oneway="0"/>
    <type id="highway.trunk" priority="13" numLanes="2" speed="27.78" disallow="pedestrian bicycle tram rail_urban rail rail_electric rail_fast ship container cable_car subway aircraft wheelchair scooter drone" oneway="0"/>
    <type id="highway.unclassified" priority="4" numLanes="1" speed="13.89" disallow="tram rail_urban rail rail_electric rail_fast ship container cable_car subway aircraft wheelchair scooter drone" oneway="0"/>

    <edge id=":1203974039_0" function="internal">
        <lane id=":1203974039_0_0" index="0" speed="13.89" length="3.00" shape="4243.65,2936.61 4246.64,2936.49"/>
    </edge>
    <edge id=":1203974086_0" function="internal">
        <lane id=":1203974086_0_0" index="0" speed="13.89" length="7.99" shape="4390.09,2927.92 4382.11,2928.23"/>
    </edge>
    <edge id=":1203974086_1" function="internal">
        <lane id=":1203974086_1_0" index="0" speed="13.89" length="8.41" shape="4382.23,2931.43 4384.71,2931.84 4386.29,2932.88 4387.87,2933.91 4390.35,2934.31"/>
        <lane id=":1203974086_1_1" index="1" speed="13.89" length="8.41" shape="4382.23,2931.43 4390.22,2931.11"/>
    </edge>
    <edge id=":1204037875_0" function="internal">
        <lane id=":1204037875_0_0" index="0" disallow="pedestrian tram rail_urban rail rail_electric rail_fast ship container cable_car subway aircraft wheelchair scooter drone" speed="22.22" length="0.40" shape="5377.12,3034.98 5376.72,3034.96"/>
    </edge>
    <edge id=":1204037875_1" function="internal">
        <lane id=":1204037875_1_0" index="0" disallow="pedestrian tram rail_urban rail rail_electric rail_fast ship container cable_car subway aircraft wheelchair scooter drone" speed="3.65" length="2.34" shape="5377.12,3034.98 5375.87,3035.70 5375.41,3036.47"/>
    </edge>
    <edge id=":1204037875_5" function="internal">
        <lane id=":1204037875_5_0" index="0" disallow="pedestrian tram rail_urban rail rail_electric rail_fast ship container cable_car subway aircraft wheelchair scooter drone" speed="3.65" length="2.34" shape="5375.41,3036.47 5375.76,3037.29 5376.90,3038.18"/>
    </edge>
    <edge id=":1204037875_2" function="internal">
        <lane id=":1204037875_2_0" index="0" disallow="pedestrian tram rail_urban rail rail_electric rail_fast ship container cable_car subway aircraft wheelchair scooter drone" speed="22.22" length="0.24" shape="5376.49,3041.36 5376.67,3041.37"/>
        <lane id=":1204037875_2_1" index="1" disallow="pedestrian tram rail_urban rail rail_electric rail_fast ship container cable_car subway aircraft wheelchair scooter drone" speed="22.22" length="0.24" shape="5376.60,3038.16 5376.90,3038.18"/>
    </edge>
    <edge id=":1204037875_4" function="internal">
        <lane id=":1204037875_4_0" index="0" disallow="pedestrian tram rail_urban rail rail_electric rail_fast ship container cable_car subway aircraft wheelchair scooter drone" speed="3.65" length="2.34" shape="5376.60,3038.16 5377.83,3037.41 5378.26,3036.62"/>
    </edge>
    <edge id=":1204037875_6" function="internal">
        <lane id=":1204037875_6_0" index="0" disallow="pedestrian tram rail_urban rail rail_electric rail_fast ship container cable_car subway aircraft wheelchair scooter drone" speed="3.65" length="2.34" shape="5378.26,3036.62 5377.89,3035.81 5376.72,3034.96"/>
    </edge>
    <edge id=":2163628485_0" function="internal">
        <lane id=":2163628485_0_0" index="0" disallow="pedestrian tram rail_urban rail rail_electric rail_fast ship container cable_car subway aircraft wheelchair scooter drone" speed="9.00" length="14.66" shape="5780.94,3251.57 5779.42,3248.33 5777.01,3246.06 5773.70,3244.74 5769.50,3244.39"/>
        <lane id=":2163628485_0_1" index="1" disallow="pedestrian tram rail_urban rail rail_electric rail_fast ship container cable_car subway aircraft wheelchair scooter drone" speed="7.51" length="9.97" shape="5777.87,3252.45 5776.83,3250.26 5775.19,3248.71 5772.94,3247.82 5770.09,3247.57"/>
    </edge>
    <edge id=":2163628485_2" function="internal">
        <lane id=":2163628485_2_0" index="0" disallow="pedestrian tram rail_urban rail rail_electric rail_fast ship container cable_car subway aircraft wheelchair scooter drone" speed="3.65" length="1.44" shape="5777.87,3252.45 5776.77,3251.52"/>
    </edge>
    <edge id=":2163628485_5" function="internal">
        <lane id=":2163628485_5_0" index="0" disallow="pedestrian tram rail_urban rail rail_electric rail_fast ship container cable_car subway aircraft wheelchair scooter drone" speed="3.65" length="3.23" shape="5776.77,3251.52 5775.89,3251.36 5775.23,3251.97 5774.79,3253.34"/>
    </edge>
    <edge id=":2163628485_3" function="internal">
        <lane id=":2163628485_3_0" index="0" disallow="pedestrian tram rail_urban rail rail_electric rail_fast ship container cable_car subway aircraft wheelchair scooter drone" speed="5.65" length="5.28" shape="5770.67,3250.76 5772.19,3250.89 5773.38,3251.36 5774.25,3252.18 5774.79,3253.34"/>
    </edge>
    <edge id=":2163628485_4" function="internal">
        <lane id=":2163628485_4_0" index="0" disallow="pedestrian tram rail_urban rail rail_electric rail_fast ship container cable_car subway aircraft wheelchair scooter drone" speed="3.67" length="1.23" shape="5770.67,3250.76 5771.56,3249.90"/>
    </edge>
    <edge id=":2163628485_6" function="internal">
        <lane id=":2163628485_6_0" index="0" disallow="pedestrian tram rail_urban rail rail_electric rail_fast ship container cable_car subway aircraft wheelchair scooter drone" speed="3.67" length="3.50" shape="5771.56,3249.90 5771.72,3249.74 5771.97,3248.87 5771.43,3248.15 5770.09,3247.57"/>
    </edge>
    <edge id=":2163628490_0" function="internal">
        <lane id=":2163628490_0_0" index="0" disallow="pedestrian tram rail_urban rail rail_electric rail_fast ship container cable_car subway aircraft wheelchair scooter drone" speed="8.52" length="14.88" shape="5802.79,3348.17 5806.08,3345.85 5807.96,3343.00 5808.45,3339.61 5807.53,3335.70"/>
        <lane id=":2163628490_0_1" index="1" disallow="pedestrian tram rail_urban rail rail_electric rail_fast ship container cable_car subway aircraft wheelchair scooter drone" speed="7.13" length="10.12" shape="5801.33,3345.33 5803.56,3343.75 5804.84,3341.81 5805.17,3339.51 5804.55,3336.85"/>
    </edge>
    <edge id=":2163628490_2" function="internal">
        <lane id=":2163628490_2_0" index="0" disallow="pedestrian tram rail_urban rail rail_electric rail_fast ship container cable_car subway aircraft wheelchair scooter drone" speed="5.38" length="5.36" shape="5801.56,3338.00 5801.89,3339.41 5801.72,3340.62 5801.04,3341.65 5799.86,3342.49"/>
    </edge>
    <edge id=":2163628490_3" function="internal">
        <lane id=":2163628490_3_0" index="0" disallow="pedestrian tram rail_urban rail rail_electric rail_fast ship container cable_car subway aircraft wheelchair scooter drone" speed="3.65" length="4.67" shape="5801.56,3338.00 5802.74,3338.83 5803.63,3338.91 5804.23,3338.25 5804.55,3336.85"/>
    </edge>
    <edge id=":2166920658_0" function="internal">
        <lane id=":2166920658_0_0" index="0" disallow="pedestrian bicycle tram rail_urban rail rail_electric rail_fast ship container cable_car subway aircraft wheelchair scooter drone" speed="20.84" length="0.51" shape="5241.09,3562.93 5240.58,3562.94"/>
    </edge>
    <edge id=":2166920658_1" function="internal">
        <lane id=":2166920658_1_0" index="0" disallow="pedestrian bicycle tram rail_urban rail rail_electric rail_fast ship container cable_car subway aircraft wheelchair scooter drone" speed="20.84" length="0.28" shape="5240.75,3569.34 5240.96,3569.33"/>
        <lane id=":2166920658_1_1" index="1" disallow="pedestrian bicycle tram rail_urban rail rail_electric rail_fast ship container cable_car subway aircraft wheelchair scooter drone" speed="20.84" length="0.28" shape="5240.67,3566.14 5241.03,3566.13"/>
    </edge>
    <edge id=":2166920658_3" function="internal">
        <lane id=":2166920658_3_0" index="0" disallow="pedestrian bicycle tram rail_urban rail rail_electric rail_fast ship container cable_car subway aircraft wheelchair scooter drone" speed="3.65" length="2.34" shape="5240.67,3566.14 5241.85,3565.30 5242.23,3564.49"/>
    </edge>
    <edge id=":2166920658_4" function="internal">
        <lane id=":2166920658_4_0" index="0" disallow="pedestrian bicycle tram rail_urban rail rail_electric rail_fast ship container cable_car subway aircraft wheelchair scooter drone" speed="3.65" length="2.34" shape="5242.23,3564.49 5241.80,3563.71 5240.58,3562.94"/>
    </edge>
    <edge id=":2166920661_0" function="internal">
        <lane id=":2166920661_0_0" index="0" disallow="pedestrian bicycle tram rail_urban rail rail_electric rail_fast ship container cable_car subway aircraft wheelchair scooter drone" speed="27.78" length="0.18" shape="5134.45,3556.54 5134.28,3556.49"/>
    </edge>
    <edge id=":2166920661_1" function="internal">
        <lane id=":2166920661_1_0" index="0" disallow="pedestrian bicycle tram rail_urban rail rail_electric rail_fast ship container cable_car subway aircraft wheelchair scooter drone" speed="3.65" length="2.34" shape="5134.45,3556.54 5133.09,3557.00 5132.49,3557.67"/>
    </edge>
    <edge id=":2166920661_5" function="internal">
        <lane id=":2166920661_5_0" index="0" disallow="pedestrian bicycle tram rail_urban rail rail_electric rail_fast ship container cable_car subway aircraft wheelchair scooter drone" speed="3.65" length="2.34" shape="5132.49,3557.67 5132.67,3558.55 5133.63,3559.63"/>
    </edge>
    <edge id=":2166920661_2" function="internal">
        <lane id=":2166920661_2_0" index="0" disallow="pedestrian bicycle tram rail_urban rail rail_electric rail_fast ship container cable_car subway aircraft wheelchair scooter drone" speed="27.78" length="0.43" shape="5132.31,3562.58 5132.80,3562.72"/>
        <lane id=":2166920661_2_1" index="1" disallow="pedestrian bicycle tram rail_urban rail rail_electric rail_fast ship container cable_car subway aircraft wheelchair scooter drone" speed="27.78" length="0.43" shape="5133.29,3559.53 5133.63,3559.63"/>
    </edge>
    <edge id=":2166920661_4" function="internal">
        <lane id=":2166920661_4_0" index="0" disallow="pedestrian bicycle tram rail_urban rail rail_electric rail_fast ship container cable_car subway aircraft wheelchair scooter drone" speed="3.65" length="2.34" shape="5133.29,3559.53 5134.68,3559.14 5135.31,3558.50"/>
    </edge>
    <edge id=":2166920661_6" function="internal">
        <lane id=":2166920661_6_0" index="0" disallow="pedestrian bicycle tram rail_urban rail rail_electric rail_fast ship container cable_car subway aircraft wheelchair scooter drone" speed="3.65" length="2.34" shape="5135.31,3558.50 5135.17,3557.62 5134.28,3556.49"/>
    </edge>
    <edge id=":2166926148_0" function="internal">
        <lane id=":2166926148_0_0" index="0" disallow="pedestrian tram rail_urban rail rail_electric rail_fast ship container cable_car subway aircraft wheelchair scooter drone" speed="18.05" length="0.32" shape="4727.82,2913.95 4727.49,2913.97"/>
    </edge>
    <edge id=":2166926148_1" function="internal">
        <lane id=":2166926148_1_0" index="0" disallow="pedestrian tram rail_urban rail rail_electric rail_fast ship container cable_car subway aircraft wheelchair scooter drone" speed="18.05" length="0.29" shape="4727.82,2920.36 4728.09,2920.35"/>
        <lane id=":2166926148_1_1" index="1" disallow="pedestrian tram rail_urban rail rail_electric rail_fast ship container cable_car subway aircraft wheelchair scooter drone" speed="18.05" length="0.29" shape="4727.66,2917.17 4727.95,2917.15"/>
    </edge>
    <edge id=":2166926148_3" function="internal">
        <lane id=":2166926148_3_0" index="0" disallow="pedestrian tram rail_urban rail rail_electric rail_fast ship container cable_car subway aircraft wheelchair scooter drone" speed="3.65" length="2.34" shape="4727.66,2917.17 4728.81,2916.31 4729.17,2915.49"/>
    </edge>
    <edge id=":2166926148_4" function="internal">
        <lane id=":2166926148_4_0" index="0" disallow="pedestrian tram rail_urban rail rail_electric rail_fast ship container cable_car subway aircraft wheelchair scooter drone" speed="3.65" length="2.34" shape="4729.17,2915.49 4728.73,2914.71 4727.49,2913.97"/>
    </edge>
    <edge id=":2166926152_0" function="internal">
        <lane id=":2166926152_0_0" index="0" disallow="pedestrian" speed="13.89" length="1.66" shape="4900.23,2918.29 4899.76,2918.14 4899.44,2918.04 4899.11,2917.97 4898.62,2917.89"/>
    </edge>
    <edge id=":2166926152_1" function="internal">
        <lane id=":2166926152_1_0" index="0" disallow="pedestrian" speed="13.89" length="0.86" shape="4897.57,2924.20 4897.74,2924.23 4897.86,2924.25 4897.98,2924.29 4898.15,2924.35"/>
        <lane id=":2166926152_1_1" index="1" disallow="pedestrian" speed="13.89" length="0.86" shape="4898.10,2921.04 4898.43,2921.10 4898.65,2921.15 4898.87,2921.21 4899.19,2921.32"/>
    </edge>
    <edge id=":2166926175_0" function="internal">
        <lane id=":2166926175_0_0" index="0" disallow="pedestrian" speed="13.89" length="0.36" shape="5086.82,2982.47 5086.72,2982.45 5086.65,2982.43 5086.58,2982.41 5086.48,2982.37"/>
    </edge>
    <edge id=":2166926175_1" function="internal">
        <lane id=":2166926175_1_0" index="0" disallow="pedestrian" speed="13.89" length="0.84" shape="5084.39,2988.42 5084.67,2988.52 5084.87,2988.58 5085.06,2988.63 5085.35,2988.70"/>
        <lane id=":2166926175_1_1" index="1" disallow="pedestrian" speed="13.89" length="0.84" shape="5085.43,2985.40 5085.62,2985.46 5085.76,2985.50 5085.89,2985.54 5086.08,2985.59"/>
    </edge>
    <edge id=":2177225764_0" function="internal">
        <lane id=":2177225764_0_0" index="0" disallow="pedestrian tram rail_urban rail rail_electric rail_fast ship container cable_car subway aircraft wheelchair scooter drone" speed="18.05" length="0.20" shape="5250.38,3021.07 5250.19,3021.03"/>
    </edge>
    <edge id=":2177225764_1" function="internal">
        <lane id=":2177225764_1_0" index="0" disallow="pedestrian tram rail_urban rail rail_electric rail_fast ship container cable_car subway aircraft wheelchair scooter drone" speed="3.65" length="2.34" shape="5250.38,3021.07 5249.06,3021.65 5248.53,3022.36"/>
    </edge>
    <edge id=":2177225764_4" function="internal">
        <lane id=":2177225764_4_0" index="0" disallow="pedestrian tram rail_urban rail rail_electric rail_fast ship container cable_car subway aircraft wheelchair scooter drone" speed="3.65" length="2.34" shape="5248.53,3022.36 5248.78,3023.22 5249.82,3024.22"/>
    </edge>
    <edge id=":2177225764_2" function="internal">
        <lane id=":2177225764_2_0" index="0" disallow="pedestrian tram rail_urban rail rail_electric rail_fast ship container cable_car subway aircraft wheelchair scooter drone" speed="18.05" length="0.46" shape="5248.72,3027.26 5249.26,3027.37"/>
        <lane id=":2177225764_2_1" index="1" disallow="pedestrian tram rail_urban rail rail_electric rail_fast ship container cable_car subway aircraft wheelchair scooter drone" speed="18.05" length="0.46" shape="5249.45,3024.14 5249.82,3024.22"/>
    </edge>
    <edge id=":2177225844_0" function="internal">
        <lane id=":2177225844_0_0" index="0" disallow="pedestrian bicycle tram rail_urban rail rail_electric rail_fast ship container cable_car subway aircraft wheelchair scooter drone" speed="20.84" length="0.25" shape="5635.44,3427.49 5635.21,3427.60"/>
    </edge>
    <edge id=":2177225844_1" function="internal">
        <lane id=":2177225844_1_0" index="0" disallow="pedestrian bicycle tram rail_urban rail rail_electric rail_fast ship container cable_car subway aircraft wheelchair scooter drone" speed="20.84" length="0.31" shape="5638.08,3433.32 5638.38,3433.17"/>
        <lane id=":2177225844_1_1" index="1" disallow="pedestrian bicycle tram rail_urban rail rail_electric rail_fast ship container cable_car subway aircraft wheelchair scooter drone" speed="20.84" length="0.31" shape="5636.65,3430.46 5636.91,3430.33"/>
    </edge>
    <edge id=":2177225844_3" function="internal">
        <lane id=":2177225844_3_0" index="0" disallow="pedestrian bicycle tram rail_urban rail rail_electric rail_fast ship container cable_car subway aircraft wheelchair scooter drone" speed="3.65" length="2.34" shape="5636.65,3430.46 5637.36,3429.21 5637.36,3428.31"/>
    </edge>
    <edge id=":2177225844_4" function="internal">
        <lane id=":2177225844_4_0" index="0" disallow="pedestrian bicycle tram rail_urban rail rail_electric rail_fast ship container cable_car subway aircraft wheelchair scooter drone" speed="3.65" length="2.34" shape="5637.36,3428.31 5636.64,3427.78 5635.21,3427.60"/>
    </edge>
    <edge id=":2189184400_0" function="internal">
        <lane id=":2189184400_0_0" index="0" disallow="pedestrian bicycle tram rail_urban rail rail_electric rail_fast ship container cable_car subway aircraft wheelchair scooter drone" speed="20.84" length="0.40" shape="5059.57,3507.89 5059.48,3507.81 5059.42,3507.75 5059.37,3507.69 5059.29,3507.60"/>
    </edge>
    <edge id=":2189184400_1" function="internal">
        <lane id=":2189184400_1_0" index="0" disallow="pedestrian bicycle tram rail_urban rail rail_electric rail_fast ship container cable_car subway aircraft wheelchair scooter drone" speed="3.65" length="1.44" shape="5059.57,3507.89 5058.15,3507.66"/>
    </edge>
    <edge id=":2189184400_4" function="internal">
        <lane id=":2189184400_4_0" index="0" disallow="pedestrian bicycle tram rail_urban rail rail_electric rail_fast ship container cable_car subway aircraft wheelchair scooter drone" speed="3.65" length="3.23" shape="5058.15,3507.66 5057.31,3507.98 5057.06,3508.84 5057.40,3510.24"/>
    </edge>
    <edge id=":2189184400_2" function="internal">
        <lane id=":2189184400_2_0" index="0" disallow="pedestrian bicycle tram rail_urban rail rail_electric rail_fast ship container cable_car subway aircraft wheelchair scooter drone" speed="20.84" length="0.94" shape="5054.45,3511.79 5054.67,3512.04 5054.82,3512.21 5054.98,3512.37 5055.22,3512.59"/>
        <lane id=":2189184400_2_1" index="1" disallow="pedestrian bicycle tram rail_urban rail rail_electric rail_fast ship container cable_car subway aircraft wheelchair scooter drone" speed="20.84" length="0.94" shape="5056.87,3509.70 5057.02,3509.87 5057.12,3509.98 5057.23,3510.09 5057.40,3510.24"/>
    </edge>
    <edge id=":2196799986_0" function="internal">
        <lane id=":2196799986_0_0" index="0" disallow="pedestrian" speed="13.89" length="0.23" shape="4647.53,3094.83 4647.35,3094.69"/>
    </edge>
    <edge id=":2196799986_1" function="internal">
        <lane id=":2196799986_1_0" index="0" disallow="pedestrian" speed="13.89" length="0.53" shape="4643.17,3099.54 4643.66,3099.93"/>
        <lane id=":2196799986_1_1" index="1" disallow="pedestrian" speed="13.89" length="0.53" shape="4645.26,3097.12 4645.59,3097.38"/>
    </edge>
    <edge id=":2196800013_0" function="internal">
        <lane id=":2196800013_0_0" index="0" disallow="pedestrian" speed="13.89" length="0.15" shape="4767.96,3186.08 4767.84,3185.99"/>
    </edge>
    <edge id=":2196800013_1" function="internal">
        <lane id=":2196800013_1_0" index="0" disallow="pedestrian" speed="13.89" length="0.15" shape="4763.97,3191.10 4764.09,3191.19"/>
        <lane id=":2196800013_1_1" index="1" disallow="pedestrian" speed="13.89" length="0.15" shape="4765.90,3188.54 4766.02,3188.64"/>
    </edge>
    <edge id=":2223514512_0" function="internal">
        <lane id=":2223514512_0_0" index="0" disallow="pedestrian tram rail_urban rail rail_electric rail_fast ship container cable_car subway aircraft wheelchair scooter drone" speed="13.89" length="16.59" shape="5516.50,3068.84 5515.45,3064.10 5514.82,3060.84 5514.42,3057.54 5514.04,3052.70"/>
        <lane id=":2223514512_0_1" index="1" disallow="pedestrian tram rail_urban rail rail_electric rail_fast ship container cable_car subway aircraft wheelchair scooter drone" speed="13.89" length="16.59" shape="5513.38,3069.54 5512.30,3064.66 5511.65,3061.30 5511.24,3057.90 5510.85,3052.92"/>
    </edge>
    <edge id=":2223514512_2" function="internal">
        <lane id=":2223514512_2_0" index="0" disallow="pedestrian tram rail_urban rail rail_electric rail_fast ship container cable_car subway aircraft wheelchair scooter drone" speed="9.59" length="5.10" shape="5513.38,3069.54 5511.82,3065.00 5511.64,3064.76"/>
    </edge>
    <edge id=":2223514512_3" function="internal">
        <lane id=":2223514512_3_0" index="0" disallow="pedestrian tram rail_urban rail rail_electric rail_fast ship container cable_car subway aircraft wheelchair scooter drone" speed="3.65" length="1.44" shape="5513.38,3069.54 5512.34,3068.54"/>
    </edge>
    <edge id=":2223514512_8" function="internal">
        <lane id=":2223514512_8_0" index="0" disallow="pedestrian tram rail_urban rail rail_electric rail_fast ship container cable_car subway aircraft wheelchair scooter drone" speed="9.59" length="11.74" shape="5511.64,3064.76 5509.41,3061.72 5506.17,3059.69 5502.09,3058.92"/>
    </edge>
    <edge id=":2223514512_9" function="internal">
        <lane id=":2223514512_9_0" index="0" disallow="pedestrian tram rail_urban rail rail_electric rail_fast ship container cable_car subway aircraft wheelchair scooter drone" speed="3.65" length="3.23" shape="5512.34,3068.54 5511.47,3068.32 5510.78,3068.89 5510.26,3070.23"/>
    </edge>
    <edge id=":2223514512_4" function="internal">
        <lane id=":2223514512_4_0" index="0" disallow="pedestrian tram rail_urban rail rail_electric rail_fast ship container cable_car subway aircraft wheelchair scooter drone" speed="9.18" length="20.47" shape="5501.89,3065.32 5507.54,3064.69 5511.46,3062.37 5513.62,3058.38 5514.04,3052.70"/>
        <lane id=":2223514512_4_1" index="1" disallow="pedestrian tram rail_urban rail rail_electric rail_fast ship container cable_car subway aircraft wheelchair scooter drone" speed="7.91" length="14.92" shape="5501.99,3062.12 5506.11,3061.66 5508.96,3059.97 5510.54,3057.06 5510.85,3052.92"/>
    </edge>
    <edge id=":2223514512_6" function="internal">
        <lane id=":2223514512_6_0" index="0" disallow="pedestrian tram rail_urban rail rail_electric rail_fast ship container cable_car subway aircraft wheelchair scooter drone" speed="6.40" length="9.38" shape="5507.66,3053.15 5507.47,3055.74 5506.47,3057.57 5504.68,3058.63 5502.09,3058.92"/>
    </edge>
    <edge id=":2223514512_7" function="internal">
        <lane id=":2223514512_7_0" index="0" disallow="pedestrian tram rail_urban rail rail_electric rail_fast ship container cable_car subway aircraft wheelchair scooter drone" speed="13.89" length="17.31" shape="5507.66,3053.15 5508.05,3058.27 5508.48,3061.76 5509.15,3065.22 5510.26,3070.23"/>
    </edge>
    <edge id=":461192779_0" function="internal">
        <lane id=":461192779_0_0" index="0" disallow="pedestrian bicycle tram rail_urban rail rail_electric rail_fast ship container cable_car subway aircraft wheelchair scooter drone" speed="20.84" length="0.28" shape="5508.95,3490.92 5508.70,3491.05"/>
    </edge>
    <edge id=":461192779_1" function="internal">
        <lane id=":461192779_1_0" index="0" disallow="pedestrian bicycle tram rail_urban rail rail_electric rail_fast ship container cable_car subway aircraft wheelchair scooter drone" speed="3.65" length="2.34" shape="5508.95,3490.92 5508.23,3492.17 5508.23,3493.06"/>
    </edge>
    <edge id=":461192779_4" function="internal">
        <lane id=":461192779_4_0" index="0" disallow="pedestrian bicycle tram rail_urban rail rail_electric rail_fast ship container cable_car subway aircraft wheelchair scooter drone" speed="3.65" length="2.34" shape="5508.23,3493.06 5508.94,3493.60 5510.37,3493.79"/>
    </edge>
    <edge id=":461192779_2" function="internal">
        <lane id=":461192779_2_0" index="0" disallow="pedestrian bicycle tram rail_urban rail rail_electric rail_fast ship container cable_car subway aircraft wheelchair scooter drone" speed="20.84" length="0.31" shape="5511.50,3496.80 5511.78,3496.66"/>
        <lane id=":461192779_2_1" index="1" disallow="pedestrian bicycle tram rail_urban rail rail_electric rail_fast ship container cable_car subway aircraft wheelchair scooter drone" speed="20.84" length="0.31" shape="5510.10,3493.92 5510.37,3493.79"/>
    </edge>
    <edge id=":918333092_0" function="internal">
        <lane id=":918333092_0_0" index="0" disallow="pedestrian bicycle tram rail_urban rail rail_electric rail_fast ship container cable_car subway aircraft wheelchair scooter drone" speed="20.84" length="2.93" shape="4866.17,3261.06 4865.65,3260.37 4865.26,3259.92 4864.82,3259.52 4864.13,3258.99"/>
    </edge>
    <edge id=":918333092_1" function="internal">
        <lane id=":918333092_1_0" index="0" disallow="pedestrian bicycle tram rail_urban rail rail_electric rail_fast ship container cable_car subway aircraft wheelchair scooter drone" speed="3.65" length="1.44" shape="4866.17,3261.06 4864.82,3260.57"/>
    </edge>
    <edge id=":918333092_4" function="internal">
        <lane id=":918333092_4_0" index="0" disallow="pedestrian bicycle tram rail_urban rail rail_electric rail_fast ship container cable_car subway aircraft wheelchair scooter drone" speed="3.65" length="3.23" shape="4864.82,3260.57 4863.93,3260.71 4863.52,3261.51 4863.59,3262.95"/>
    </edge>
    <edge id=":918333092_2" function="internal">
        <lane id=":918333092_2_0" index="0" disallow="pedestrian bicycle tram rail_urban rail rail_electric rail_fast ship container cable_car subway aircraft wheelchair scooter drone" speed="14.06" length="1.52" shape="4860.27,3264.09 4860.51,3264.28 4860.67,3264.42 4860.81,3264.59 4861.00,3264.84"/>
        <lane id=":918333092_2_1" index="1" disallow="pedestrian bicycle tram rail_urban rail rail_electric rail_fast ship container cable_car subway aircraft wheelchair scooter drone" speed="19.22" length="1.52" shape="4862.20,3261.54 4862.67,3261.90 4862.97,3262.17 4863.23,3262.48 4863.59,3262.95"/>
    </edge>
    <edge id=":918333488_0" function="internal">
        <lane id=":918333488_0_0" index="0" disallow="pedestrian bicycle tram rail_urban rail rail_electric rail_fast ship container cable_car subway aircraft wheelchair scooter drone" speed="20.84" length="0.29" shape="4974.91,3410.02 4974.73,3409.79"/>
    </edge>
    <edge id=":918333488_1" function="internal">
        <lane id=":918333488_1_0" index="0" disallow="pedestrian bicycle tram rail_urban rail rail_electric rail_fast ship container cable_car subway aircraft wheelchair scooter drone" speed="20.84" length="0.68" shape="4969.56,3413.57 4970.07,3414.21"/>
        <lane id=":918333488_1_1" index="1" disallow="pedestrian bicycle tram rail_urban rail rail_electric rail_fast ship container cable_car subway aircraft wheelchair scooter drone" speed="20.84" length="0.68" shape="4972.14,3411.68 4972.49,3412.12"/>
    </edge>
    <edge id=":918333488_3" function="internal">
        <lane id=":918333488_3_0" index="0" disallow="pedestrian bicycle tram rail_urban rail rail_electric rail_fast ship container cable_car subway aircraft wheelchair scooter drone" speed="3.65" length="2.34" shape="4972.14,3411.68 4973.50,3412.18 4974.38,3412.03"/>
    </edge>
    <edge id=":918333488_4" function="internal">
        <lane id=":918333488_4_0" index="0" disallow="pedestrian bicycle tram rail_urban rail rail_electric rail_fast ship container cable_car subway aircraft wheelchair scooter drone" speed="3.65" length="2.34" shape="4974.38,3412.03 4974.79,3411.24 4974.73,3409.79"/>
    </edge>
    <edge id=":918333525_0" function="internal">
        <lane id=":918333525_0_0" index="0" disallow="pedestrian" speed="7.00" length="1.72" shape="5357.18,3564.89 5356.72,3565.11 5356.38,3565.22 5356.03,3565.26 5355.53,3565.25"/>
    </edge>
    <edge id=":918333525_1" function="internal">
        <lane id=":918333525_1_0" index="0" disallow="pedestrian" speed="11.32" length="4.01" shape="5355.40,3571.65 5356.81,3571.66 5357.78,3571.55 5358.71,3571.24 5359.98,3570.64"/>