<?xml version="1.0" encoding="UTF-8"?>

<!-- generated on 2025-10-29 18:12:06 by Eclipse SUMO netedit Version 1.20.0
<configuration xmlns:xsi="http://www.w3.org/2001/XMLSchema-instance" xsi:noNamespaceSchemaLocation="http://sumo.dlr.de/xsd/neteditConfiguration.xsd">

    <input>
        <sumo-net-file value="/Users/kashiisamutakeshi/vehicle-assistant-system/sumo/its102/map_one/data/one_shelter_one_departure.net.xml"/>
    </input>

    <output>
        <output-file value="/Users/kashiisamutakeshi/vehicle-assistant-system/sumo/its102/map_one/data/one_shelter_one_departure.net.xml"/>
    </output>

    <processing>
        <geometry.min-radius.fix.railways value="false"/>
        <geometry.max-grade.fix value="false"/>
        <offset.disable-normalization value="true"/>
        <lefthand value="1"/>
    </processing>

    <junctions>
        <no-turnarounds value="true"/>
        <junctions.corner-detail value="5"/>
        <junctions.limit-turn-speed value="5.50"/>
        <rectangular-lane-cut value="0"/>
    </junctions>

    <pedestrian>
        <walkingareas value="0"/>
    </pedestrian>

</configuration>
-->

<net version="1.20" junctionCornerDetail="5" lefthand="true" limitTurnSpeed="5.50" xmlns:xsi="http://www.w3.org/2001/XMLSchema-instance" xsi:noNamespaceSchemaLocation="http://sumo.dlr.de/xsd/net_file.xsd">

    <location netOffset="0.00,0.00" convBoundary="-1100.00,-400.00,1200.00,0.00" origBoundary="-10000000000.00,-10000000000.00,10000000000.00,10000000000.00" projParameter="!"/>

    <edge id=":J0_0" function="internal">
        <lane id=":J0_0_0" index="0" speed="6.51" length="9.03" shape="-1.60,-7.20 -1.95,-4.75 -3.00,-3.00 -4.75,-1.95 -7.20,-1.60"/>
    </edge>
    <edge id=":J0_1" function="internal">
        <lane id=":J0_1_0" index="0" speed="8.00" length="14.19" shape="-1.60,-7.20 -1.05,-3.35 0.60,-0.60 3.35,1.05 7.20,1.60"/>
    </edge>
    <edge id=":J0_2" function="internal">
        <lane id=":J0_2_0" index="0" speed="6.51" length="9.03" shape="7.20,-1.60 4.75,-1.95 3.00,-3.00 1.95,-4.75 1.60,-7.20"/>
    </edge>
    <edge id=":J0_3" function="internal">
        <lane id=":J0_3_0" index="0" speed="13.89" length="14.40" shape="7.20,-1.60 -7.20,-1.60"/>
    </edge>
    <edge id=":J0_4" function="internal">
        <lane id=":J0_4_0" index="0" speed="13.89" length="14.62" shape="-7.20,1.60 -3.88,2.10 -0.89,3.20 2.54,4.30 7.20,4.80"/>
        <lane id=":J0_4_1" index="1" speed="13.89" length="14.62" shape="-7.20,1.60 7.20,1.60"/>
    </edge>
    <edge id=":J0_6" function="internal">
        <lane id=":J0_6_0" index="0" speed="8.00" length="4.07" shape="-7.20,1.60 -3.35,1.05 -3.20,0.96"/>
    </edge>
    <edge id=":J0_7" function="internal">
        <lane id=":J0_7_0" index="0" speed="8.00" length="10.13" shape="-3.20,0.96 -0.60,-0.60 1.05,-3.35 1.60,-7.20"/>
    </edge>
    <edge id=":J1_0" function="internal">
        <lane id=":J1_0_0" index="0" speed="13.89" length="0.10" shape="100.00,-1.60 100.00,-1.60"/>
    </edge>
    <edge id=":J1_1" function="internal">
        <lane id=":J1_1_0" index="0" speed="13.89" length="0.10" shape="100.00,4.80 100.00,4.80"/>
        <lane id=":J1_1_1" index="1" speed="13.89" length="0.10" shape="100.00,1.60 100.00,1.60"/>
    </edge>
    <edge id=":J14_0" function="internal">
        <lane id=":J14_0_0" index="0" speed="13.89" length="3.00" shape="-1.60,-301.50 -1.60,-298.50"/>
    </edge>
    <edge id=":J15_0" function="internal">
        <lane id=":J15_0_0" index="0" speed="13.89" length="0.10" shape="-1.60,-200.00 -1.60,-200.00"/>
    </edge>
    <edge id=":J15_1" function="internal">
        <lane id=":J15_1_0" index="0" speed="13.89" length="0.10" shape="1.60,-200.00 1.60,-200.00"/>
    </edge>
    <edge id=":J16_0" function="internal">
        <lane id=":J16_0_0" index="0" speed="13.89" length="0.10" shape="-200.00,-1.60 -200.00,-1.60"/>
    </edge>
    <edge id=":J16_1" function="internal">
        <lane id=":J16_1_0" index="0" speed="13.89" length="0.10" shape="-200.00,1.60 -200.00,1.60"/>
    </edge>
    <edge id=":J17_0" function="internal">
        <lane id=":J17_0_0" index="0" speed="13.89" length="0.10" shape="-400.00,-1.60 -400.00,-1.60"/>
    </edge>
    <edge id=":J17_1" function="internal">
        <lane id=":J17_1_0" index="0" speed="13.89" length="0.10" shape="-400.00,1.60 -400.00,1.60"/>
    </edge>
    <edge id=":J18_0" function="internal">
        <lane id=":J18_0_0" index="0" speed="13.89" length="0.10" shape="-600.00,-1.60 -600.00,-1.60"/>
    </edge>
    <edge id=":J18_1" function="internal">
        <lane id=":J18_1_0" index="0" speed="13.89" length="0.10" shape="-600.00,1.60 -600.00,1.60"/>
    </edge>
    <edge id=":J19_0" function="internal">
        <lane id=":J19_0_0" index="0" speed="13.89" length="3.00" shape="-798.50,-1.60 -801.50,-1.60"/>
    </edge>
    <edge id=":J2_0" function="internal">
        <lane id=":J2_0_0" index="0" speed="13.89" length="0.10" shape="200.00,-1.60 200.00,-1.60"/>
    </edge>
    <edge id=":J2_1" function="internal">
        <lane id=":J2_1_0" index="0" speed="13.89" length="0.10" shape="200.00,4.80 200.00,4.80"/>
        <lane id=":J2_1_1" index="1" speed="13.89" length="0.10" shape="200.00,1.60 200.00,1.60"/>
    </edge>
    <edge id=":J3_0" function="internal">
        <lane id=":J3_0_0" index="0" speed="13.89" length="0.10" shape="300.00,-1.60 300.00,-1.60"/>
    </edge>
    <edge id=":J3_1" function="internal">
        <lane id=":J3_1_0" index="0" speed="13.89" length="0.10" shape="300.00,4.80 300.00,4.80"/>
        <lane id=":J3_1_1" index="1" speed="13.89" length="0.10" shape="300.00,1.60 300.00,1.60"/>
    </edge>
    <edge id=":J4_0" function="internal">
        <lane id=":J4_0_0" index="0" speed="13.89" length="0.10" shape="400.00,-1.60 400.00,-1.60"/>
    </edge>
    <edge id=":J4_1" function="internal">
        <lane id=":J4_1_0" index="0" speed="13.89" length="0.10" shape="400.00,4.80 400.00,4.80"/>
        <lane id=":J4_1_1" index="1" speed="13.89" length="0.10" shape="400.00,1.60 400.00,1.60"/>
    </edge>
    <edge id=":J5_0" function="internal">
        <lane id=":J5_0_0" index="0" speed="13.89" length="0.10" shape="500.00,-1.60 500.00,-1.60"/>
    </edge>
    <edge id=":J5_1" function="internal">
        <lane id=":J5_1_0" index="0" speed="13.89" length="0.10" shape="500.00,4.80 500.00,4.80"/>
        <lane id=":J5_1_1" index="1" speed="13.89" length="0.10" shape="500.00,1.60 500.00,1.60"/>
    </edge>
    <edge id=":J6_0" function="internal">
        <lane id=":J6_0_0" index="0" speed="13.89" length="0.10" shape="600.00,-1.60 600.00,-1.60"/>
    </edge>
    <edge id=":J6_1" function="internal">
        <lane id=":J6_1_0" index="0" speed="13.89" length="0.10" shape="600.00,4.80 600.00,4.80"/>
        <lane id=":J6_1_1" index="1" speed="13.89" length="0.10" shape="600.00,1.60 600.00,1.60"/>
    </edge>
    <edge id=":J7_0" function="internal">
        <lane id=":J7_0_0" index="0" speed="13.89" length="0.10" shape="800.00,-1.60 800.00,-1.60"/>
    </edge>
    <edge id=":J7_1" function="internal">
        <lane id=":J7_1_0" index="0" speed="13.89" length="0.10" shape="800.00,4.80 800.00,4.80"/>
        <lane id=":J7_1_1" index="1" speed="13.89" length="0.10" shape="800.00,1.60 800.00,1.60"/>
    </edge>
    <edge id=":J8_0" function="internal">
        <lane id=":J8_0_0" index="0" speed="13.89" length="3.00" shape="998.50,4.80 1001.50,4.80"/>
        <lane id=":J8_0_1" index="1" speed="13.89" length="3.00" shape="998.50,1.60 1001.50,1.60"/>
    </edge>
    <edge id=":J9_0" function="internal">
        <lane id=":J9_0_0" index="0" speed="13.89" length="0.10" shape="-1.60,-100.00 -1.60,-100.00"/>
    </edge>
    <edge id=":J9_1" function="internal">
        <lane id=":J9_1_0" index="0" speed="13.89" length="0.10" shape="1.60,-100.00 1.60,-100.00"/>
    </edge>

    <edge id="-E0" from="J1" to="J0" priority="-1">
        <lane id="-E0_0" index="0" speed="13.89" length="92.80" shape="100.00,-1.60 7.20,-1.60"/>
    </edge>
    <edge id="-E1" from="J2" to="J1" priority="-1">
        <lane id="-E1_0" index="0" speed="13.89" length="100.00" shape="200.00,-1.60 100.00,-1.60"/>
    </edge>
    <edge id="-E11" from="J15" to="J14" priority="-1">
        <lane id="-E11_0" index="0" speed="13.89" length="98.50" shape="1.60,-200.00 1.60,-298.50"/>
    </edge>
    <edge id="-E12" from="J9" to="J15" priority="-1">
        <lane id="-E12_0" index="0" speed="13.89" length="100.00" shape="1.60,-100.00 1.60,-200.00"/>
    </edge>
    <edge id="-E13" from="J16" to="J0" priority="-1">
        <lane id="-E13_0" index="0" speed="13.89" length="192.80" shape="-200.00,1.60 -7.20,1.60"/>
    </edge>
    <edge id="-E14" from="J17" to="J16" priority="-1">
        <lane id="-E14_0" index="0" speed="13.89" length="200.00" shape="-400.00,1.60 -200.00,1.60"/>
    </edge>
    <edge id="-E15" from="J18" to="J17" priority="-1">
        <lane id="-E15_0" index="0" speed="13.89" length="200.00" shape="-600.00,1.60 -400.00,1.60"/>
    </edge>
    <edge id="-E16" from="J19" to="J18" priority="-1">
        <lane id="-E16_0" index="0" speed="13.89" length="198.50" shape="-798.50,1.60 -600.00,1.60"/>
    </edge>
    <edge id="-E2" from="J3" to="J2" priority="-1">
        <lane id="-E2_0" index="0" speed="13.89" length="100.00" shape="300.00,-1.60 200.00,-1.60"/>
    </edge>
    <edge id="-E3" from="J4" to="J3" priority="-1">
        <lane id="-E3_0" index="0" speed="13.89" length="100.00" shape="400.00,-1.60 300.00,-1.60"/>
    </edge>
    <edge id="-E4" from="J5" to="J4" priority="-1">
        <lane id="-E4_0" index="0" speed="13.89" length="100.00" shape="500.00,-1.60 400.00,-1.60"/>
    </edge>
    <edge id="-E5" from="J6" to="J5" priority="-1">
        <lane id="-E5_0" index="0" speed="13.89" length="100.00" shape="600.00,-1.60 500.00,-1.60"/>
    </edge>
    <edge id="-E6" from="J7" to="J6" priority="-1">
        <lane id="-E6_0" index="0" speed="13.89" length="200.00" shape="800.00,-1.60 600.00,-1.60"/>
    </edge>
    <edge id="-E7" from="J8" to="J7" priority="-1">
        <lane id="-E7_0" index="0" speed="13.89" length="198.50" shape="998.50,-1.60 800.00,-1.60"/>
    </edge>
    <edge id="-E8" from="J0" to="J9" priority="-1">
        <lane id="-E8_0" index="0" speed="13.89" length="92.80" shape="1.60,-7.20 1.60,-100.00"/>
    </edge>
    <edge id="E0" from="J0" to="J1" priority="-1">
        <lane id="E0_0" index="0" speed="13.89" length="92.80" shape="7.20,4.80 100.00,4.80"/>
        <lane id="E0_1" index="1" speed="13.89" length="92.80" shape="7.20,1.60 100.00,1.60"/>
    </edge>
    <edge id="E1" from="J1" to="J2" priority="-1">
        <lane id="E1_0" index="0" speed="13.89" length="100.00" shape="100.00,4.80 200.00,4.80"/>
        <lane id="E1_1" index="1" speed="13.89" length="100.00" shape="100.00,1.60 200.00,1.60"/>
    </edge>
    <edge id="E10" from="J13" to="J14" priority="-1">
        <lane id="E10_0" index="0" speed="13.89" length="98.50" shape="-1.60,-400.00 -1.60,-301.50"/>
    </edge>
    <edge id="E11" from="J14" to="J15" priority="-1">
        <lane id="E11_0" index="0" speed="13.89" length="98.50" shape="-1.60,-298.50 -1.60,-200.00"/>
    </edge>
    <edge id="E12" from="J15" to="J9" priority="-1">
        <lane id="E12_0" index="0" speed="13.89" length="100.00" shape="-1.60,-200.00 -1.60,-100.00"/>
    </edge>
    <edge id="E13" from="J0" to="J16" priority="-1">
        <lane id="E13_0" index="0" speed="13.89" length="192.80" shape="-7.20,-1.60 -200.00,-1.60"/>
    </edge>
    <edge id="E14" from="J16" to="J17" priority="-1" shape="-200.00,0.00 -300.00,0.00 -400.00,0.00">
        <lane id="E14_0" index="0" speed="13.89" length="200.00" shape="-200.00,-1.60 -300.00,-1.60 -400.00,-1.60"/>
    </edge>
    <edge id="E15" from="J17" to="J18" priority="-1">
        <lane id="E15_0" index="0" speed="13.89" length="200.00" shape="-400.00,-1.60 -600.00,-1.60"/>
    </edge>
    <edge id="E16" from="J18" to="J19" priority="-1">
        <lane id="E16_0" index="0" speed="13.89" length="198.50" shape="-600.00,-1.60 -798.50,-1.60"/>
    </edge>
    <edge id="E17" from="J8" to="J11" priority="-1">
        <lane id="E17_0" index="0" speed="13.89" length="198.50" shape="1001.50,4.80 1200.00,4.80"/>
        <lane id="E17_1" index="1" speed="13.89" length="198.50" shape="1001.50,1.60 1200.00,1.60"/>
    </edge>
    <edge id="E2" from="J2" to="J3" priority="-1">
        <lane id="E2_0" index="0" speed="13.89" length="100.00" shape="200.00,4.80 300.00,4.80"/>
        <lane id="E2_1" index="1" speed="13.89" length="100.00" shape="200.00,1.60 300.00,1.60"/>
    </edge>
    <edge id="E3" from="J3" to="J4" priority="-1">
        <lane id="E3_0" index="0" speed="13.89" length="100.00" shape="300.00,4.80 400.00,4.80"/>
        <lane id="E3_1" index="1" speed="13.89" length="100.00" shape="300.00,1.60 400.00,1.60"/>
    </edge>
    <edge id="E4" from="J4" to="J5" priority="-1">
        <lane id="E4_0" index="0" speed="13.89" length="100.00" shape="400.00,4.80 500.00,4.80"/>
        <lane id="E4_1" index="1" speed="13.89" length="100.00" shape="400.00,1.60 500.00,1.60"/>
    </edge>
    <edge id="E5" from="J5" to="J6" priority="-1">
        <lane id="E5_0" index="0" speed="13.89" length="100.00" shape="500.00,4.80 600.00,4.80"/>
        <lane id="E5_1" index="1" speed="13.89" length="100.00" shape="500.00,1.60 600.00,1.60"/>
    </edge>
    <edge id="E6" from="J6" to="J7" priority="-1">
        <lane id="E6_0" index="0" speed="13.89" length="200.00" shape="600.00,4.80 800.00,4.80"/>
        <lane id="E6_1" index="1" speed="13.89" length="200.00" shape="600.00,1.60 800.00,1.60"/>
    </edge>
    <edge id="E7" from="J7" to="J8" priority="-1">
        <lane id="E7_0" index="0" speed="13.89" length="198.50" shape="800.00,4.80 998.50,4.80"/>
        <lane id="E7_1" index="1" speed="13.89" length="198.50" shape="800.00,1.60 998.50,1.60"/>
    </edge>
    <edge id="E8" from="J9" to="J0" priority="-1">
        <lane id="E8_0" index="0" speed="13.89" length="92.80" shape="-1.60,-100.00 -1.60,-7.20"/>
    </edge>
    <edge id="E9" from="J19" to="J10" priority="-1">
        <lane id="E9_0" index="0" speed="13.89" length="298.50" shape="-801.50,-1.60 -1100.00,-1.60"/>
    </edge>

    <junction id="J0" type="priority" x="0.00" y="0.00" incLanes="E8_0 -E0_0 -E13_0" intLanes=":J0_0_0 :J0_1_0 :J0_2_0 :J0_3_0 :J0_4_0 :J0_4_1 :J0_7_0" shape="-3.20,-7.20 3.20,-7.20 3.64,-4.98 4.20,-4.20 4.98,-3.64 5.98,-3.31 7.20,-3.20 7.20,6.40 4.08,6.16 1.83,5.57 -1.83,4.03 -4.08,3.44 -7.20,3.20 -7.20,-3.20 -4.98,-3.64 -4.20,-4.20 -3.64,-4.98 -3.31,-5.98">
        <request index="0" response="0001000" foes="0001000" cont="0"/>
        <request index="1" response="1111000" foes="1111000" cont="0"/>
        <request index="2" response="0000000" foes="1000000" cont="0"/>
        <request index="3" response="0000000" foes="1000011" cont="0"/>
        <request index="4" response="0000000" foes="0000010" cont="0"/>
        <request index="5" response="0000000" foes="0000010" cont="0"/>
        <request index="6" response="0001100" foes="0001110" cont="1"/>
    </junction>
    <junction id="J1" type="priority" x="100.00" y="0.00" incLanes="-E1_0 E0_0 E0_1" intLanes=":J1_0_0 :J1_1_0 :J1_1_1" shape="100.00,-3.20 100.00,6.40 100.00,-3.20">
        <request index="0" response="000" foes="000" cont="0"/>
        <request index="1" response="000" foes="000" cont="0"/>
        <request index="2" response="000" foes="000" cont="0"/>
    </junction>
    <junction id="J10" type="dead_end" x="-1100.00" y="0.00" incLanes="E9_0" intLanes="" shape="-1100.00,-3.20 -1100.00,-0.00"/>
    <junction id="J11" type="dead_end" x="1200.00" y="0.00" incLanes="E17_0 E17_1" intLanes="" shape="1200.00,6.40 1200.00,-0.00"/>
    <junction id="J13" type="dead_end" x="0.00" y="-400.00" incLanes="" intLanes="" shape="0.00,-400.00 -3.20,-400.00"/>
    <junction id="J14" type="priority" x="0.00" y="-300.00" incLanes="E10_0 -E11_0" intLanes=":J14_0_0" shape="-3.20,-301.50 0.00,-301.50 3.20,-298.50 -3.20,-298.50">
        <request index="0" response="0" foes="0" cont="0"/>
    </junction>
    <junction id="J15" type="priority" x="0.00" y="-200.00" incLanes="E11_0 -E12_0" intLanes=":J15_0_0 :J15_1_0" shape="-3.20,-200.00 3.20,-200.00 -3.20,-200.00">
        <request index="0" response="00" foes="00" cont="0"/>
        <request index="1" response="00" foes="00" cont="0"/>
    </junction>
    <junction id="J16" type="priority" x="-200.00" y="0.00" incLanes="E13_0 -E14_0" intLanes=":J16_0_0 :J16_1_0" shape="-200.00,-3.20 -200.00,3.20 -200.00,-3.20">
        <request index="0" response="00" foes="00" cont="0"/>
        <request index="1" response="00" foes="00" cont="0"/>
    </junction>
    <junction id="J17" type="priority" x="-400.00" y="0.00" incLanes="E14_0 -E15_0" intLanes=":J17_0_0 :J17_1_0" shape="-400.00,-3.20 -400.00,3.20 -400.00,-3.20">
        <request index="0" response="00" foes="00" cont="0"/>
        <request index="1" response="00" foes="00" cont="0"/>
    </junction>
    <junction id="J18" type="priority" x="-600.00" y="0.00" incLanes="E15_0 -E16_0" intLanes=":J18_0_0 :J18_1_0" shape="-600.00,-3.20 -600.00,3.20 -600.00,-3.20">
        <request index="0" response="00" foes="00" cont="0"/>
        <request index="1" response="00" foes="00" cont="0"/>
    </junction>
    <junction id="J19" type="priority" x="-800.00" y="0.00" incLanes="E16_0" intLanes=":J19_0_0" shape="-798.50,-3.20 -798.50,3.20 -801.50,-0.00 -801.50,-3.20">
        <request index="0" response="0" foes="0" cont="0"/>
    </junction>
    <junction id="J2" type="priority" x="200.00" y="0.00" incLanes="-E2_0 E1_0 E1_1" intLanes=":J2_0_0 :J2_1_0 :J2_1_1" shape="200.00,-3.20 200.00,6.40 200.00,-3.20">
        <request index="0" response="000" foes="000" cont="0"/>
        <request index="1" response="000" foes="000" cont="0"/>
        <request index="2" response="000" foes="000" cont="0"/>
    </junction>
    <junction id="J3" type="priority" x="300.00" y="0.00" incLanes="-E3_0 E2_0 E2_1" intLanes=":J3_0_0 :J3_1_0 :J3_1_1" shape="300.00,-3.20 300.00,6.40 300.00,-3.20">
        <request index="0" response="000" foes="000" cont="0"/>
        <request index="1" response="000" foes="000" cont="0"/>
        <request index="2" response="000" foes="000" cont="0"/>
    </junction>
    <junction id="J4" type="priority" x="400.00" y="0.00" incLanes="-E4_0 E3_0 E3_1" intLanes=":J4_0_0 :J4_1_0 :J4_1_1" shape="400.00,-3.20 400.00,6.40 400.00,-3.20">
        <request index="0" response="000" foes="000" cont="0"/>
        <request index="1" response="000" foes="000" cont="0"/>
        <request index="2" response="000" foes="000" cont="0"/>
    </junction>
    <junction id="J5" type="priority" x="500.00" y="0.00" incLanes="-E5_0 E4_0 E4_1" intLanes=":J5_0_0 :J5_1_0 :J5_1_1" shape="500.00,-3.20 500.00,6.40 500.00,-3.20">
        <request index="0" response="000" foes="000" cont="0"/>
        <request index="1" response="000" foes="000" cont="0"/>
        <request index="2" response="000" foes="000" cont="0"/>
    </junction>
    <junction id="J6" type="priority" x="600.00" y="0.00" incLanes="-E6_0 E5_0 E5_1" intLanes=":J6_0_0 :J6_1_0 :J6_1_1" shape="600.00,-3.20 600.00,6.40 600.00,-3.20">
        <request index="0" response="000" foes="000" cont="0"/>
        <request index="1" response="000" foes="000" cont="0"/>
        <request index="2" response="000" foes="000" cont="0"/>
    </junction>
    <junction id="J7" type="priority" x="800.00" y="0.00" incLanes="-E7_0 E6_0 E6_1" intLanes=":J7_0_0 :J7_1_0 :J7_1_1" shape="800.00,-3.20 800.00,6.40 800.00,-3.20">
        <request index="0" response="000" foes="000" cont="0"/>
        <request index="1" response="000" foes="000" cont="0"/>
        <request index="2" response="000" foes="000" cont="0"/>
    </junction>
    <junction id="J8" type="priority" x="1000.00" y="0.00" incLanes="E7_0 E7_1" intLanes=":J8_0_0 :J8_0_1" shape="1001.50,-0.00 1001.50,6.40 998.50,6.40 998.50,-3.20">
        <request index="0" response="00" foes="00" cont="0"/>
        <request index="1" response="00" foes="00" cont="0"/>
    </junction>
    <junction id="J9" type="priority" x="0.00" y="-100.00" incLanes="E12_0 -E8_0" intLanes=":J9_0_0 :J9_1_0" shape="-3.20,-100.00 3.20,-100.00 -3.20,-100.00">
        <request index="0" response="00" foes="00" cont="0"/>
        <request index="1" response="00" foes="00" cont="0"/>
    </junction>

    <junction id=":J0_7_0" type="internal" x="-3.20" y="0.96" incLanes=":J0_6_0 -E0_0" intLanes=":J0_1_0 :J0_2_0 :J0_3_0"/>

    <connection from="-E0" to="-E8" fromLane="0" toLane="0" via=":J0_2_0" dir="l" state="M"/>
    <connection from="-E0" to="E13" fromLane="0" toLane="0" via=":J0_3_0" dir="s" state="M"/>
    <connection from="-E1" to="-E0" fromLane="0" toLane="0" via=":J1_0_0" dir="s" state="M"/>
    <connection from="-E12" to="-E11" fromLane="0" toLane="0" via=":J15_1_0" dir="s" state="M"/>
    <connection from="-E13" to="E0" fromLane="0" toLane="0" via=":J0_4_0" dir="s" state="M"/>
    <connection from="-E13" to="E0" fromLane="0" toLane="1" via=":J0_4_1" dir="s" state="M"/>
    <connection from="-E13" to="-E8" fromLane="0" toLane="0" via=":J0_6_0" dir="r" state="m"/>
    <connection from="-E14" to="-E13" fromLane="0" toLane="0" via=":J16_1_0" dir="s" state="M"/>
    <connection from="-E15" to="-E14" fromLane="0" toLane="0" via=":J17_1_0" dir="s" state="M"/>
    <connection from="-E16" to="-E15" fromLane="0" toLane="0" via=":J18_1_0" dir="s" state="M"/>
    <connection from="-E2" to="-E1" fromLane="0" toLane="0" via=":J2_0_0" dir="s" state="M"/>
    <connection from="-E3" to="-E2" fromLane="0" toLane="0" via=":J3_0_0" dir="s" state="M"/>
    <connection from="-E4" to="-E3" fromLane="0" toLane="0" via=":J4_0_0" dir="s" state="M"/>
    <connection from="-E5" to="-E4" fromLane="0" toLane="0" via=":J5_0_0" dir="s" state="M"/>
    <connection from="-E6" to="-E5" fromLane="0" toLane="0" via=":J6_0_0" dir="s" state="M"/>
    <connection from="-E7" to="-E6" fromLane="0" toLane="0" via=":J7_0_0" dir="s" state="M"/>
    <connection from="-E8" to="-E12" fromLane="0" toLane="0" via=":J9_1_0" dir="s" state="M"/>
    <connection from="E0" to="E1" fromLane="0" toLane="0" via=":J1_1_0" dir="s" state="M"/>
    <connection from="E0" to="E1" fromLane="1" toLane="1" via=":J1_1_1" dir="s" state="M"/>
    <connection from="E1" to="E2" fromLane="0" toLane="0" via=":J2_1_0" dir="s" state="M"/>
    <connection from="E1" to="E2" fromLane="1" toLane="1" via=":J2_1_1" dir="s" state="M"/>
    <connection from="E10" to="E11" fromLane="0" toLane="0" via=":J14_0_0" dir="s" state="M"/>
    <connection from="E11" to="E12" fromLane="0" toLane="0" via=":J15_0_0" dir="s" state="M"/>
    <connection from="E12" to="E8" fromLane="0" toLane="0" via=":J9_0_0" dir="s" state="M"/>
    <connection from="E13" to="E14" fromLane="0" toLane="0" via=":J16_0_0" dir="s" state="M"/>
    <connection from="E14" to="E15" fromLane="0" toLane="0" via=":J17_0_0" dir="s" state="M"/>
    <connection from="E15" to="E16" fromLane="0" toLane="0" via=":J18_0_0" dir="s" state="M"/>
    <connection from="E16" to="E9" fromLane="0" toLane="0" via=":J19_0_0" dir="s" state="M"/>
    <connection from="E2" to="E3" fromLane="0" toLane="0" via=":J3_1_0" dir="s" state="M"/>
    <connection from="E2" to="E3" fromLane="1" toLane="1" via=":J3_1_1" dir="s" state="M"/>
    <connection from="E3" to="E4" fromLane="0" toLane="0" via=":J4_1_0" dir="s" state="M"/>
    <connection from="E3" to="E4" fromLane="1" toLane="1" via=":J4_1_1" dir="s" state="M"/>
    <connection from="E4" to="E5" fromLane="0" toLane="0" via=":J5_1_0" dir="s" state="M"/>
    <connection from="E4" to="E5" fromLane="1" toLane="1" via=":J5_1_1" dir="s" state="M"/>
    <connection from="E5" to="E6" fromLane="0" toLane="0" via=":J6_1_0" dir="s" state="M"/>
    <connection from="E5" to="E6" fromLane="1" toLane="1" via=":J6_1_1" dir="s" state="M"/>
    <connection from="E6" to="E7" fromLane="0" toLane="0" via=":J7_1_0" dir="s" state="M"/>
    <connection from="E6" to="E7" fromLane="1" toLane="1" via=":J7_1_1" dir="s" state="M"/>
    <connection from="E7" to="E17" fromLane="0" toLane="0" via=":J8_0_0" dir="s" state="M"/>
    <connection from="E7" to="E17" fromLane="1" toLane="1" via=":J8_0_1" dir="s" state="M"/>
    <connection from="E8" to="E13" fromLane="0" toLane="0" via=":J0_0_0" dir="l" state="m"/>
    <connection from="E8" to="E0" fromLane="0" toLane="1" via=":J0_1_0" dir="r" state="m"/>

    <connection from=":J0_0" to="E13" fromLane="0" toLane="0" dir="l" state="M"/>
    <connection from=":J0_1" to="E0" fromLane="0" toLane="1" dir="r" state="M"/>
    <connection from=":J0_2" to="-E8" fromLane="0" toLane="0" dir="l" state="M"/>
    <connection from=":J0_3" to="E13" fromLane="0" toLane="0" dir="s" state="M"/>
    <connection from=":J0_4" to="E0" fromLane="0" toLane="0" dir="s" state="M"/>
    <connection from=":J0_4" to="E0" fromLane="1" toLane="1" dir="s" state="M"/>
    <connection from=":J0_6" to="-E8" fromLane="0" toLane="0" via=":J0_7_0" dir="r" state="m"/>
    <connection from=":J0_7" to="-E8" fromLane="0" toLane="0" dir="r" state="M"/>
    <connection from=":J1_0" to="-E0" fromLane="0" toLane="0" dir="s" state="M"/>
    <connection from=":J1_1" to="E1" fromLane="0" toLane="0" dir="s" state="M"/>
    <connection from=":J1_1" to="E1" fromLane="1" toLane="1" dir="s" state="M"/>
    <connection from=":J14_0" to="E11" fromLane="0" toLane="0" dir="s" state="M"/>
    <connection from=":J15_0" to="E12" fromLane="0" toLane="0" dir="s" state="M"/>
    <connection from=":J15_1" to="-E11" fromLane="0" toLane="0" dir="s" state="M"/>
    <connection from=":J16_0" to="E14" fromLane="0" toLane="0" dir="s" state="M"/>
    <connection from=":J16_1" to="-E13" fromLane="0" toLane="0" dir="s" state="M"/>
    <connection from=":J17_0" to="E15" fromLane="0" toLane="0" dir="s" state="M"/>
    <connection from=":J17_1" to="-E14" fromLane="0" toLane="0" dir="s" state="M"/>
    <connection from=":J18_0" to="E16" fromLane="0" toLane="0" dir="s" state="M"/>
    <connection from=":J18_1" to="-E15" fromLane="0" toLane="0" dir="s" state="M"/>
    <connection from=":J19_0" to="E9" fromLane="0" toLane="0" dir="s" state="M"/>
    <connection from=":J2_0" to="-E1" fromLane="0" toLane="0" dir="s" state="M"/>
    <connection from=":J2_1" to="E2" fromLane="0" toLane="0" dir="s" state="M"/>
    <connection from=":J2_1" to="E2" fromLane="1" toLane="1" dir="s" state="M"/>
    <connection from=":J3_0" to="-E2" fromLane="0" toLane="0" dir="s" state="M"/>
    <connection from=":J3_1" to="E3" fromLane="0" toLane="0" dir="s" state="M"/>
    <connection from=":J3_1" to="E3" fromLane="1" toLane="1" dir="s" state="M"/>
    <connection from=":J4_0" to="-E3" fromLane="0" toLane="0" dir="s" state="M"/>
    <connection from=":J4_1" to="E4" fromLane="0" toLane="0" dir="s" state="M"/>
    <connection from=":J4_1" to="E4" fromLane="1" toLane="1" dir="s" state="M"/>
    <connection from=":J5_0" to="-E4" fromLane="0" toLane="0" dir="s" state="M"/>
    <connection from=":J5_1" to="E5" fromLane="0" toLane="0" dir="s" state="M"/>
    <connection from=":J5_1" to="E5" fromLane="1" toLane="1" dir="s" state="M"/>
    <connection from=":J6_0" to="-E5" fromLane="0" toLane="0" dir="s" state="M"/>
    <connection from=":J6_1" to="E6" fromLane="0" toLane="0" dir="s" state="M"/>
    <connection from=":J6_1" to="E6" fromLane="1" toLane="1" dir="s" state="M"/>
    <connection from=":J7_0" to="-E6" fromLane="0" toLane="0" dir="s" state="M"/>
    <connection from=":J7_1" to="E7" fromLane="0" toLane="0" dir="s" state="M"/>
    <connection from=":J7_1" to="E7" fromLane="1" toLane="1" dir="s" state="M"/>
    <connection from=":J8_0" to="E17" fromLane="0" toLane="0" dir="s" state="M"/>
    <connection from=":J8_0" to="E17" fromLane="1" toLane="1" dir="s" state="M"/>
    <connection from=":J9_0" to="E8" fromLane="0" toLane="0" dir="s" state="M"/>
    <connection from=":J9_1" to="-E12" fromLane="0" toLane="0" dir="s" state="M"/>

</net>
