<?xml version="1.0" encoding="UTF-8"?>

<!-- generated on 2026-05-11 02:44:50 by Eclipse SUMO netedit Version 1.20.0
<configuration xmlns:xsi="http://www.w3.org/2001/XMLSchema-instance" xsi:noNamespaceSchemaLocation="http://sumo.dlr.de/xsd/neteditConfiguration.xsd">

    <input>
        <sumo-net-file value="/Users/kashiisamutakeshi/vehicle-assistant-system/scenarios/dicomo2026/map_one/data/ishinomaki_two_shelter.net.xml"/>
    </input>

    <output>
        <output-file value="/Users/kashiisamutakeshi/vehicle-assistant-system/scenarios/dicomo2026/map_one/data/ishinomaki_two_shelter.net.xml"/>
    </output>

    <processing>
        <geometry.min-radius.fix.railways value="false"/>
        <geometry.max-grade.fix value="false"/>
        <offset.disable-normalization value="true"/>
        <lefthand value="1"/>
    </processing>

    <junctions>
        <no-turnarounds value="true"/>
        <junctions.corner-detail value="5"/>
        <junctions.limit-turn-speed value="5.50"/>
        <rectangular-lane-cut value="0"/>
    </junctions>

    <pedestrian>
        <walkingareas value="0"/>
    </pedestrian>

</configuration>
-->

<net version="1.20" junctionCornerDetail="5" lefthand="true" limitTurnSpeed="5.50" xmlns:xsi="http://www.w3.org/2001/XMLSchema-instance" xsi:noNamespaceSchemaLocation="http://sumo.dlr.de/xsd/net_file.xsd">

    <location netOffset="-520703.59,-4250601.64" convBoundary="5501.08,2448.61,11028.38,6227.14" origBoundary="141.237328,38.305646,141.419841,38.482093" projParameter="+proj=utm +zone=54 +ellps=WGS84 +datum=WGS84 +units=m +no_defs"/>

    <type id="highway.primary" priority="12" numLanes="2" speed="27.78" disallow="tram rail_urban rail rail_electric rail_fast ship container cable_car subway aircraft wheelchair scooter drone" oneway="0"/>
    <type id="highway.secondary" priority="11" numLanes="1" speed="27.78" disallow="tram rail_urban rail rail_electric rail_fast ship container cable_car subway aircraft wheelchair scooter drone" oneway="0"/>
    <type id="highway.tertiary" priority="10" numLanes="1" speed="22.22" disallow="tram rail_urban rail rail_electric rail_fast ship container cable_car subway aircraft wheelchair scooter drone" oneway="0"/>
    <type id="highway.trunk" priority="13" numLanes="2" speed="27.78" disallow="pedestrian bicycle tram rail_urban rail rail_electric rail_fast ship container cable_car subway aircraft wheelchair scooter drone" oneway="0"/>

    <edge id=":1203996219_0" function="internal">
        <lane id=":1203996219_0_0" index="0" disallow="pedestrian bicycle tram rail_urban rail rail_electric rail_fast ship container cable_car subway aircraft wheelchair scooter drone" speed="6.84" length="9.38" shape="6298.15,3188.43 6295.70,3189.57 6293.50,3189.79 6291.54,3189.07 6289.82,3187.43"/>
        <lane id=":1203996219_0_1" index="1" disallow="pedestrian bicycle tram rail_urban rail rail_electric rail_fast ship container cable_car subway aircraft wheelchair scooter drone" speed="8.29" length="14.24" shape="6299.89,3191.12 6296.23,3192.80 6292.91,3193.07 6289.92,3191.93 6287.27,3189.37"/>
    </edge>
    <edge id=":1203996219_2" function="internal">
        <lane id=":1203996219_2_0" index="0" disallow="pedestrian bicycle tram rail_urban rail rail_electric rail_fast ship container cable_car subway aircraft wheelchair scooter drone" speed="8.62" length="17.07" shape="6299.89,3191.12 6295.70,3194.41 6293.44,3197.84 6293.11,3201.41 6294.71,3205.13"/>
    </edge>
    <edge id=":1203996219_3" function="internal">
        <lane id=":1203996219_3_0" index="0" disallow="pedestrian bicycle tram rail_urban rail rail_electric rail_fast ship container cable_car subway aircraft wheelchair scooter drone" speed="6.45" length="9.10" shape="6300.01,3201.56 6298.91,3199.29 6298.82,3197.25 6299.72,3195.42 6301.62,3193.81"/>
    </edge>
    <edge id=":1203996219_4" function="internal">
        <lane id=":1203996219_4_0" index="0" disallow="pedestrian tram rail_urban rail rail_electric rail_fast ship container cable_car subway aircraft wheelchair scooter drone" speed="20.84" length="17.33" shape="6300.01,3201.56 6289.82,3187.43"/>
        <lane id=":1203996219_4_1" index="1" disallow="pedestrian tram rail_urban rail rail_electric rail_fast ship container cable_car subway aircraft wheelchair scooter drone" speed="20.84" length="17.33" shape="6297.36,3203.35 6287.27,3189.37"/>
    </edge>
    <edge id=":1203996219_6" function="internal">
        <lane id=":1203996219_6_0" index="0" disallow="pedestrian tram rail_urban rail rail_electric rail_fast ship container cable_car subway aircraft wheelchair scooter drone" speed="20.84" length="17.20" shape="6284.72,3191.30 6287.39,3195.64 6288.54,3199.01 6289.61,3202.43 6292.05,3206.92"/>
        <lane id=":1203996219_6_1" index="1" disallow="pedestrian tram rail_urban rail rail_electric rail_fast ship container cable_car subway aircraft wheelchair scooter drone" speed="20.84" length="17.20" shape="6284.72,3191.30 6294.71,3205.13"/>
    </edge>
    <edge id=":1203996219_8" function="internal">
        <lane id=":1203996219_8_0" index="0" disallow="pedestrian bicycle tram rail_urban rail rail_electric rail_fast ship container cable_car subway aircraft wheelchair scooter drone" speed="9.53" length="4.10" shape="6284.72,3191.30 6287.66,3194.16"/>
    </edge>
    <edge id=":1203996219_9" function="internal">
        <lane id=":1203996219_9_0" index="0" disallow="pedestrian bicycle tram rail_urban rail rail_electric rail_fast ship container cable_car subway aircraft wheelchair scooter drone" speed="9.53" length="15.01" shape="6287.66,3194.16 6288.30,3194.78 6292.31,3196.36 6296.75,3196.03 6301.62,3193.81"/>
    </edge>
    <edge id=":1203996238_0" function="internal">
        <lane id=":1203996238_0_0" index="0" disallow="pedestrian bicycle tram rail_urban rail rail_electric rail_fast ship container cable_car subway aircraft wheelchair scooter drone" speed="20.84" length="3.95" shape="6800.63,2653.82 6796.08,2654.70"/>
        <lane id=":1203996238_0_1" index="1" disallow="pedestrian bicycle tram rail_urban rail rail_electric rail_fast ship container cable_car subway aircraft wheelchair scooter drone" speed="20.84" length="3.95" shape="6800.63,2653.82 6798.74,2656.48"/>
    </edge>
    <edge id=":1203996238_2" function="internal">
        <lane id=":1203996238_2_0" index="0" disallow="pedestrian bicycle tram rail_urban rail rail_electric rail_fast ship container cable_car subway aircraft wheelchair scooter drone" speed="3.64" length="1.29" shape="6801.33,2658.21 6801.33,2656.92"/>
    </edge>
    <edge id=":1203996238_3" function="internal">
        <lane id=":1203996238_3_0" index="0" disallow="pedestrian bicycle tram rail_urban rail rail_electric rail_fast ship container cable_car subway aircraft wheelchair scooter drone" speed="3.64" length="3.27" shape="6801.33,2656.92 6801.33,2656.80 6800.90,2656.05 6800.04,2655.94 6798.74,2656.48"/>
    </edge>
    <edge id=":1203997790_0" function="internal">
        <lane id=":1203997790_0_0" index="0" disallow="pedestrian tram rail_urban rail rail_electric rail_fast ship container cable_car subway aircraft wheelchair scooter drone" speed="6.30" length="9.81" shape="7097.50,3684.98 7095.71,3687.10 7093.77,3687.97 7091.68,3687.58 7089.44,3685.93"/>
    </edge>
    <edge id=":1203997790_1" function="internal">
        <lane id=":1203997790_1_0" index="0" disallow="pedestrian tram rail_urban rail rail_electric rail_fast ship container cable_car subway aircraft wheelchair scooter drone" speed="18.05" length="19.15" shape="7100.22,3686.68 7097.16,3691.47 7094.89,3694.63 7092.32,3697.56 7088.41,3701.68"/>
    </edge>
    <edge id=":1203997790_2" function="internal">
        <lane id=":1203997790_2_0" index="0" disallow="pedestrian tram rail_urban rail rail_electric rail_fast ship container cable_car subway aircraft wheelchair scooter drone" speed="18.05" length="19.81" shape="7090.72,3703.89 7094.77,3699.63 7097.42,3696.60 7099.77,3693.33 7102.93,3688.37"/>
    </edge>
    <edge id=":1203997790_3" function="internal">
        <lane id=":1203997790_3_0" index="0" disallow="pedestrian tram rail_urban rail rail_electric rail_fast ship container cable_car subway aircraft wheelchair scooter drone" speed="9.55" length="4.58" shape="7090.72,3703.89 7093.32,3700.12"/>
    </edge>
    <edge id=":1203997790_6" function="internal">
        <lane id=":1203997790_6_0" index="0" disallow="pedestrian tram rail_urban rail rail_electric rail_fast ship container cable_car subway aircraft wheelchair scooter drone" speed="9.55" length="15.87" shape="7093.32,3700.12 7093.73,3699.54 7094.51,3695.10 7093.08,3690.56 7089.44,3685.93"/>
    </edge>
    <edge id=":1203997790_4" function="internal">
        <lane id=":1203997790_4_0" index="0" disallow="pedestrian tram rail_urban rail rail_electric rail_fast ship container cable_car subway aircraft wheelchair scooter drone" speed="7.72" length="12.99" shape="7084.95,3690.50 7087.90,3693.88 7089.46,3696.88 7089.63,3699.48 7088.41,3701.68"/>
    </edge>
    <edge id=":1203997790_5" function="internal">
        <lane id=":1203997790_5_0" index="0" disallow="pedestrian tram rail_urban rail rail_electric rail_fast ship container cable_car subway aircraft wheelchair scooter drone" speed="8.51" length="18.91" shape="7087.19,3688.21 7091.86,3691.84 7096.03,3693.08 7099.72,3691.92 7102.93,3688.37"/>
    </edge>
    <edge id=":1203997796_0" function="internal">
        <lane id=":1203997796_0_0" index="0" disallow="pedestrian" speed="13.89" length="0.29" shape="6957.73,3556.36 6957.52,3556.16"/>
    </edge>
    <edge id=":1203997796_1" function="internal">
        <lane id=":1203997796_1_0" index="0" disallow="pedestrian" speed="13.89" length="0.30" shape="6953.02,3560.71 6953.24,3560.93"/>
        <lane id=":1203997796_1_1" index="1" disallow="pedestrian" speed="13.89" length="0.30" shape="6955.27,3558.43 6955.48,3558.64"/>
    </edge>
    <edge id=":1204005890_0" function="internal">
        <lane id=":1204005890_0_0" index="0" disallow="pedestrian" speed="6.52" length="2.89" shape="5968.16,2756.22 5967.82,2755.74 5967.62,2755.38 5967.52,2754.98 5967.46,2754.40"/>
        <lane id=":1204005890_0_1" index="1" disallow="pedestrian" speed="8.74" length="2.89" shape="5965.60,2758.14 5964.95,2757.24 5964.59,2756.56 5964.40,2755.81 5964.27,2754.70"/>
    </edge>
    <edge id=":1204005890_2" function="internal">
        <lane id=":1204005890_2_0" index="0" disallow="pedestrian" speed="10.50" length="5.56" shape="5961.08,2755.00 5961.27,2756.63 5961.55,2757.73 5962.09,2758.74 5963.05,2760.07"/>
    </edge>
    <edge id=":2167445295_0" function="internal">
        <lane id=":2167445295_0_0" index="0" disallow="pedestrian tram rail_urban rail rail_electric rail_fast ship container cable_car subway aircraft wheelchair scooter drone" speed="20.84" length="0.63" shape="6690.19,3191.56 6690.11,3191.39 6690.06,3191.27 6690.02,3191.15 6689.97,3190.97"/>
    </edge>
    <edge id=":2167445295_1" function="internal">
        <lane id=":2167445295_1_0" index="0" disallow="pedestrian tram rail_urban rail rail_electric rail_fast ship container cable_car subway aircraft wheelchair scooter drone" speed="20.84" length="1.48" shape="6683.80,3192.68 6683.94,3193.18 6684.06,3193.52 6684.19,3193.85 6684.42,3194.32"/>
        <lane id=":2167445295_1_1" index="1" disallow="pedestrian tram rail_urban rail rail_electric rail_fast ship container cable_car subway aircraft wheelchair scooter drone" speed="20.84" length="1.48" shape="6686.89,3191.83 6686.98,3192.17 6687.06,3192.40 6687.15,3192.62 6687.30,3192.94"/>
    </edge>
    <edge id=":2167445295_3" function="internal">
        <lane id=":2167445295_3_0" index="0" disallow="pedestrian tram rail_urban rail rail_electric rail_fast ship container cable_car subway aircraft wheelchair scooter drone" speed="3.65" length="1.44" shape="6686.89,3191.83 6687.98,3192.77"/>
    </edge>
    <edge id=":2167445295_4" function="internal">
        <lane id=":2167445295_4_0" index="0" disallow="pedestrian tram rail_urban rail rail_electric rail_fast ship container cable_car subway aircraft wheelchair scooter drone" speed="3.65" length="3.23" shape="6687.98,3192.77 6688.86,3192.94 6689.52,3192.34 6689.97,3190.97"/>
    </edge>
    <edge id=":2167445839_0" function="internal">
        <lane id=":2167445839_0_0" index="0" disallow="pedestrian tram rail_urban rail rail_electric rail_fast ship container cable_car subway aircraft wheelchair scooter drone" speed="20.84" length="0.33" shape="6822.33,3422.72 6822.10,3422.49"/>
    </edge>
    <edge id=":2167445839_1" function="internal">
        <lane id=":2167445839_1_0" index="0" disallow="pedestrian tram rail_urban rail rail_electric rail_fast ship container cable_car subway aircraft wheelchair scooter drone" speed="20.84" length="0.28" shape="6817.65,3427.09 6817.84,3427.28"/>
        <lane id=":2167445839_1_1" index="1" disallow="pedestrian tram rail_urban rail rail_electric rail_fast ship container cable_car subway aircraft wheelchair scooter drone" speed="20.84" length="0.28" shape="6819.88,3424.79 6820.09,3425.00"/>
    </edge>
    <edge id=":2167445839_3" function="internal">
        <lane id=":2167445839_3_0" index="0" disallow="pedestrian tram rail_urban rail rail_electric rail_fast ship container cable_car subway aircraft wheelchair scooter drone" speed="3.65" length="2.34" shape="6819.88,3424.79 6821.29,3425.05 6822.14,3424.76"/>
    </edge>
    <edge id=":2167445839_4" function="internal">
        <lane id=":2167445839_4_0" index="0" disallow="pedestrian tram rail_urban rail rail_electric rail_fast ship container cable_car subway aircraft wheelchair scooter drone" speed="3.65" length="2.34" shape="6822.14,3424.76 6822.41,3423.90 6822.10,3422.49"/>
    </edge>
    <edge id=":2177225738_0" function="internal">
        <lane id=":2177225738_0_0" index="0" disallow="pedestrian" speed="13.89" length="0.31" shape="6081.97,2907.65 6081.77,2907.38"/>
        <lane id=":2177225738_0_1" index="1" disallow="pedestrian" speed="13.89" length="0.31" shape="6079.38,2909.53 6079.21,2909.30"/>
    </edge>
    <edge id=":2177225738_2" function="internal">
        <lane id=":2177225738_2_0" index="0" disallow="pedestrian" speed="13.89" length="0.25" shape="6076.65,2911.22 6076.80,2911.42"/>
    </edge>
    <edge id=":2177225895_0" function="internal">
        <lane id=":2177225895_0_0" index="0" disallow="pedestrian tram rail_urban rail rail_electric rail_fast ship container cable_car subway aircraft wheelchair scooter drone" speed="20.84" length="0.61" shape="6350.55,3856.33 6350.55,3856.45 6350.55,3856.54 6350.54,3856.62 6350.53,3856.75"/>
        <lane id=":2177225895_0_1" index="1" disallow="pedestrian tram rail_urban rail rail_electric rail_fast ship container cable_car subway aircraft wheelchair scooter drone" speed="20.84" length="0.61" shape="6353.75,3856.36 6353.75,3856.59 6353.75,3856.75 6353.73,3856.91 6353.70,3857.15"/>
    </edge>
    <edge id=":2177225895_2" function="internal">
        <lane id=":2177225895_2_0" index="0" disallow="pedestrian tram rail_urban rail rail_electric rail_fast ship container cable_car subway aircraft wheelchair scooter drone" speed="20.84" length="1.17" shape="6356.88,3857.55 6356.92,3857.20 6356.94,3856.97 6356.95,3856.73 6356.95,3856.38"/>
    </edge>
    <edge id=":461223939_0" function="internal">
        <lane id=":461223939_0_0" index="0" disallow="pedestrian tram rail_urban rail rail_electric rail_fast ship container cable_car subway aircraft wheelchair scooter drone" speed="9.78" length="17.84" shape="6423.06,3343.27 6423.63,3338.55 6422.72,3334.49 6420.33,3331.07 6416.47,3328.30"/>
        <lane id=":461223939_0_1" index="1" disallow="pedestrian tram rail_urban rail rail_electric rail_fast ship container cable_car subway aircraft wheelchair scooter drone" speed="8.58" length="13.52" shape="6419.97,3342.47 6420.40,3338.90 6419.71,3335.81 6417.90,3333.23 6414.97,3331.13"/>
    </edge>
    <edge id=":461223939_2" function="internal">
        <lane id=":461223939_2_0" index="0" disallow="pedestrian tram rail_urban rail rail_electric rail_fast ship container cable_car subway aircraft wheelchair scooter drone" speed="5.41" length="4.87" shape="6411.97,3336.78 6413.03,3337.54 6413.68,3338.47 6413.93,3339.58 6413.77,3340.87"/>
        <lane id=":461223939_2_1" index="1" disallow="pedestrian tram rail_urban rail rail_electric rail_fast ship container cable_car subway aircraft wheelchair scooter drone" speed="7.17" length="9.19" shape="6413.47,3333.96 6415.46,3335.38 6416.69,3337.14 6417.16,3339.24 6416.87,3341.67"/>
    </edge>
    <edge id=":461225313_0" function="internal">
        <lane id=":461225313_0_0" index="0" disallow="pedestrian" speed="13.89" length="7.95" shape="6367.18,3520.85 6365.13,3528.51"/>
        <lane id=":461225313_0_1" index="1" disallow="pedestrian" speed="13.89" length="7.95" shape="6370.28,3521.65 6368.22,3529.36"/>
    </edge>
    <edge id=":461225313_2" function="internal">
        <lane id=":461225313_2_0" index="0" disallow="pedestrian" speed="13.89" length="8.44" shape="6371.32,3530.21 6372.45,3527.95 6373.91,3526.74 6375.37,3525.52 6376.47,3523.25"/>
        <lane id=":461225313_2_1" index="1" disallow="pedestrian" speed="13.89" length="8.44" shape="6371.32,3530.21 6373.37,3522.45"/>
    </edge>
    <edge id=":8261929251_0" function="internal">
        <lane id=":8261929251_0_0" index="0" disallow="pedestrian bicycle tram rail_urban rail rail_electric rail_fast ship container cable_car subway aircraft wheelchair scooter drone" speed="8.30" length="11.26" shape="6686.71,2808.15 6685.33,2809.82 6683.17,2810.88 6680.23,2811.32 6676.52,2811.14"/>
    </edge>
    <edge id=":8261929251_1" function="internal">
        <lane id=":8261929251_1_0" index="0" disallow="pedestrian bicycle tram rail_urban rail rail_electric rail_fast ship container cable_car subway aircraft wheelchair scooter drone" speed="20.84" length="17.12" shape="6686.71,2808.15 6684.40,2812.78 6682.94,2816.01 6681.74,2819.34 6680.20,2824.27"/>
        <lane id=":8261929251_1_1" index="1" disallow="pedestrian bicycle tram rail_urban rail rail_electric rail_fast ship container cable_car subway aircraft wheelchair scooter drone" speed="20.84" length="17.12" shape="6689.53,2809.66 6687.31,2814.12 6685.90,2817.23 6684.74,2820.45 6683.26,2825.21"/>
    </edge>
    <edge id=":8261929251_3" function="internal">
        <lane id=":8261929251_3_0" index="0" disallow="pedestrian bicycle tram rail_urban rail rail_electric rail_fast ship container cable_car subway aircraft wheelchair scooter drone" speed="20.84" length="16.18" shape="6686.35,2826.15 6687.76,2821.56 6688.87,2818.47 6690.22,2815.46 6692.35,2811.17"/>
    </edge>
    <edge id=":8261929251_4" function="internal">
        <lane id=":8261929251_4_0" index="0" disallow="pedestrian tram rail_urban rail rail_electric rail_fast ship container cable_car subway aircraft wheelchair scooter drone" speed="8.55" length="3.98" shape="6686.35,2826.15 6686.80,2822.19"/>
    </edge>
    <edge id=":8261929251_7" function="internal">
        <lane id=":8261929251_7_0" index="0" disallow="pedestrian tram rail_urban rail rail_electric rail_fast ship container cable_car subway aircraft wheelchair scooter drone" speed="8.55" length="14.55" shape="6686.80,2822.19 6686.87,2821.56 6685.34,2818.06 6681.77,2815.65 6676.15,2814.32"/>
    </edge>
    <edge id=":8261929251_5" function="internal">
        <lane id=":8261929251_5_0" index="0" disallow="pedestrian tram rail_urban rail rail_electric rail_fast ship container cable_car subway aircraft wheelchair scooter drone" speed="6.33" length="9.66" shape="6675.77,2817.50 6678.40,2818.20 6680.01,2819.56 6680.61,2821.58 6680.20,2824.27"/>
    </edge>
    <edge id=":8261929251_6" function="internal">
        <lane id=":8261929251_6_0" index="0" disallow="pedestrian bicycle tram rail_urban rail rail_electric rail_fast ship container cable_car subway aircraft wheelchair scooter drone" speed="10.62" length="18.95" shape="6675.77,2817.50 6681.55,2817.66 6686.25,2816.66 6689.85,2814.49 6692.35,2811.17"/>
    </edge>
    <edge id=":8543655884_0" function="internal">
        <lane id=":8543655884_0_0" index="0" disallow="pedestrian tram rail_urban rail rail_electric rail_fast ship container cable_car subway aircraft wheelchair scooter drone" speed="13.89" length="3.57" shape="7287.12,3433.13 7282.79,3433.23"/>
        <lane id=":8543655884_0_1" index="1" disallow="pedestrian tram rail_urban rail rail_electric rail_fast ship container cable_car subway aircraft wheelchair scooter drone" speed="13.89" length="3.57" shape="7287.12,3433.13 7285.27,3435.25"/>
    </edge>
    <edge id=":8543655884_2" function="internal">
        <lane id=":8543655884_2_0" index="0" disallow="pedestrian tram rail_urban rail rail_electric rail_fast ship container cable_car subway aircraft wheelchair scooter drone" speed="3.65" length="1.44" shape="7287.75,3437.28 7287.89,3435.84"/>
    </edge>
    <edge id=":8543655884_3" function="internal">
        <lane id=":8543655884_3_0" index="0" disallow="pedestrian tram rail_urban rail rail_electric rail_fast ship container cable_car subway aircraft wheelchair scooter drone" speed="3.65" length="3.23" shape="7287.89,3435.84 7287.52,3435.02 7286.65,3434.83 7285.27,3435.25"/>
    </edge>
    <edge id=":8689576226_0" function="internal">
        <lane id=":8689576226_0_0" index="0" disallow="pedestrian tram rail_urban rail rail_electric rail_fast ship container cable_car subway aircraft wheelchair scooter drone" speed="27.78" length="0.39" shape="6638.48,3005.59 6638.37,3005.22"/>
    </edge>
    <edge id=":8689576226_1" function="internal">
        <lane id=":8689576226_1_0" index="0" disallow="pedestrian tram rail_urban rail rail_electric rail_fast ship container cable_car subway aircraft wheelchair scooter drone" speed="3.65" length="2.34" shape="6638.48,3005.59 6637.40,3004.63 6636.52,3004.45"/>
    </edge>
    <edge id=":8689576226_5" function="internal">
        <lane id=":8689576226_5_0" index="0" disallow="pedestrian tram rail_urban rail rail_electric rail_fast ship container cable_car subway aircraft wheelchair scooter drone" speed="3.65" length="2.34" shape="6636.52,3004.45 6635.85,3005.04 6635.38,3006.40"/>
    </edge>
    <edge id=":8689576226_2" function="internal">
        <lane id=":8689576226_2_0" index="0" disallow="pedestrian tram rail_urban rail rail_electric rail_fast ship container cable_car subway aircraft wheelchair scooter drone" speed="27.78" length="0.24" shape="6632.23,3007.02 6632.28,3007.20"/>
        <lane id=":8689576226_2_1" index="1" disallow="pedestrian tram rail_urban rail rail_electric rail_fast ship container cable_car subway aircraft wheelchair scooter drone" speed="27.78" length="0.24" shape="6635.30,3006.12 6635.38,3006.40"/>
    </edge>
    <edge id=":8689576226_4" function="internal">
        <lane id=":8689576226_4_0" index="0" disallow="pedestrian tram rail_urban rail rail_electric rail_fast ship container cable_car subway aircraft wheelchair scooter drone" speed="3.65" length="2.34" shape="6635.30,3006.12 6636.41,3007.04 6637.29,3007.20"/>
    </edge>
    <edge id=":8689576226_6" function="internal">
        <lane id=":8689576226_6_0" index="0" disallow="pedestrian tram rail_urban rail rail_electric rail_fast ship container cable_car subway aircraft wheelchair scooter drone" speed="3.65" length="2.34" shape="6637.29,3007.20 6637.94,3006.59 6638.37,3005.22"/>
    </edge>
    <edge id=":8706501852_0" function="internal">
        <lane id=":8706501852_0_0" index="0" disallow="pedestrian" speed="13.89" length="0.55" shape="6325.12,4026.45 6324.91,4026.86"/>
        <lane id=":8706501852_0_1" index="1" disallow="pedestrian" speed="13.89" length="0.55" shape="6328.02,4027.82 6327.72,4028.38"/>
    </edge>
    <edge id=":8706501852_2" function="internal">
        <lane id=":8706501852_2_0" index="0" disallow="pedestrian" speed="13.89" length="0.82" shape="6330.53,4029.91 6330.89,4029.17"/>
    </edge>
    <edge id=":942328424_0" function="internal">
        <lane id=":942328424_0_0" index="0" disallow="pedestrian tram rail_urban rail rail_electric rail_fast ship container cable_car subway aircraft wheelchair scooter drone" speed="18.05" length="7.60" shape="6715.97,4078.71 6714.02,4080.01 6712.25,4080.33 6710.56,4080.73 6708.85,4082.23"/>
        <lane id=":942328424_0_1" index="1" disallow="pedestrian tram rail_urban rail rail_electric rail_fast ship container cable_car subway aircraft wheelchair scooter drone" speed="18.05" length="7.60" shape="6715.97,4078.71 6714.52,4080.22 6713.56,4081.29 6712.68,4082.42 6711.45,4084.11"/>
    </edge>
    <edge id=":942328424_2" function="internal">
        <lane id=":942328424_2_0" index="0" disallow="pedestrian tram rail_urban rail rail_electric rail_fast ship container cable_car subway aircraft wheelchair scooter drone" speed="18.05" length="6.58" shape="6714.05,4085.99 6715.19,4084.41 6716.02,4083.35 6716.91,4082.35 6718.26,4080.95"/>
    </edge>
    <edge id=":942328430_0" function="internal">
        <lane id=":942328430_0_0" index="0" disallow="pedestrian tram rail_urban rail rail_electric rail_fast ship container cable_car subway aircraft wheelchair scooter drone" speed="13.89" length="0.71" shape="7190.80,3546.00 7190.29,3546.67"/>
        <lane id=":942328430_0_1" index="1" disallow="pedestrian tram rail_urban rail rail_electric rail_fast ship container cable_car subway aircraft wheelchair scooter drone" speed="13.89" length="0.71" shape="7193.28,3548.02 7192.94,3548.48"/>
    </edge>
    <edge id=":942328430_2" function="internal">
        <lane id=":942328430_2_0" index="0" disallow="pedestrian tram rail_urban rail rail_electric rail_fast ship container cable_car subway aircraft wheelchair scooter drone" speed="3.65" length="4.67" shape="7193.28,3548.02 7193.14,3549.45 7193.51,3550.27 7194.38,3550.47 7195.76,3550.04"/>
    </edge>
    <edge id=":942328430_3" function="internal">
        <lane id=":942328430_3_0" index="0" disallow="pedestrian tram rail_urban rail rail_electric rail_fast ship container cable_car subway aircraft wheelchair scooter drone" speed="13.89" length="0.30" shape="7195.58,3550.28 7195.76,3550.04"/>
    </edge>
    <edge id=":942328430_4" function="internal">
        <lane id=":942328430_4_0" index="0" disallow="pedestrian tram rail_urban rail rail_electric rail_fast ship container cable_car subway aircraft wheelchair scooter drone" speed="3.65" length="4.67" shape="7195.58,3550.28 7195.59,3548.84 7195.16,3548.06 7194.27,3547.94 7192.94,3548.48"/>
    </edge>
    <edge id=":J10_0" function="internal">
        <lane id=":J10_0_0" index="0" disallow="pedestrian" speed="13.89" length="2.59" shape="6605.00,2988.64 6604.55,2989.19 6604.25,2989.58 6603.92,2989.93 6603.36,2990.35"/>
        <lane id=":J10_0_1" index="1" disallow="pedestrian" speed="13.89" length="2.59" shape="6607.13,2991.06 6606.60,2991.70 6606.23,2992.13 6605.81,2992.52 6605.14,2993.00"/>
    </edge>
    <edge id=":J10_2" function="internal">
        <lane id=":J10_2_0" index="0" disallow="pedestrian" speed="13.89" length="3.20" shape="6606.93,2995.66 6607.71,2995.12 6608.23,2994.72 6608.72,2994.30 6609.43,2993.66"/>
    </edge>
    <edge id=":J12_0" function="internal">
        <lane id=":J12_0_0" index="0" disallow="pedestrian tram rail_urban rail rail_electric rail_fast ship container cable_car subway aircraft wheelchair scooter drone" speed="27.78" length="0.10" shape="6619.13,2891.11 6619.13,2891.11"/>
    </edge>
    <edge id=":J12_1" function="internal">
        <lane id=":J12_1_0" index="0" disallow="pedestrian tram rail_urban rail rail_electric rail_fast ship container cable_car subway aircraft wheelchair scooter drone" speed="27.78" length="0.10" shape="6612.73,2891.36 6612.73,2891.36"/>
        <lane id=":J12_1_1" index="1" disallow="pedestrian tram rail_urban rail rail_electric rail_fast ship container cable_car subway aircraft wheelchair scooter drone" speed="27.78" length="0.10" shape="6615.93,2891.23 6615.93,2891.23"/>
    </edge>
    <edge id=":J13_0" function="internal">
        <lane id=":J13_0_0" index="0" disallow="pedestrian" speed="13.89" length="0.10" shape="6272.42,4123.69 6272.42,4123.69"/>
        <lane id=":J13_0_1" index="1" disallow="pedestrian" speed="13.89" length="0.10" shape="6275.23,4125.22 6275.23,4125.22"/>
    </edge>
    <edge id=":J13_2" function="internal">
        <lane id=":J13_2_0" index="0" disallow="pedestrian" speed="13.89" length="0.10" shape="6278.05,4126.74 6278.05,4126.74"/>
    </edge>
    <edge id=":J14_0" function="internal">
        <lane id=":J14_0_0" index="0" disallow="pedestrian" speed="13.89" length="3.00" shape="5952.09,2591.62 5951.81,2588.64"/>
        <lane id=":J14_0_1" index="1" disallow="pedestrian" speed="13.89" length="3.00" shape="5948.90,2591.92 5948.63,2588.93"/>
    </edge>
    <edge id=":J3_0" function="internal">
        <lane id=":J3_0_0" index="0" disallow="pedestrian tram rail_urban rail rail_electric rail_fast ship container cable_car subway aircraft wheelchair scooter drone" speed="20.84" length="0.33" shape="6348.02,3715.29 6348.01,3715.20 6348.00,3715.13 6348.00,3715.06 6347.99,3714.97"/>
    </edge>
    <edge id=":J3_1" function="internal">
        <lane id=":J3_1_0" index="0" disallow="pedestrian tram rail_urban rail rail_electric rail_fast ship container cable_car subway aircraft wheelchair scooter drone" speed="20.84" length="0.76" shape="6341.57,3715.15 6341.66,3716.06"/>
        <lane id=":J3_1_1" index="1" disallow="pedestrian tram rail_urban rail rail_electric rail_fast ship container cable_car subway aircraft wheelchair scooter drone" speed="20.84" length="0.76" shape="6344.78,3715.06 6344.84,3715.67"/>
    </edge>
    <edge id=":J5_0" function="internal">
        <lane id=":J5_0_0" index="0" disallow="pedestrian" speed="13.89" length="0.31" shape="6017.30,4224.87 6016.98,4224.84"/>