<?xml version="1.0" encoding="UTF-8"?>

<!-- generated on 2026-04-23 12:50:40 by Eclipse SUMO netedit Version 1.20.0
<configuration xmlns:xsi="http://www.w3.org/2001/XMLSchema-instance" xsi:noNamespaceSchemaLocation="http://sumo.dlr.de/xsd/neteditConfiguration.xsd">

    <input>
        <sumocfg-file value="/Users/kashiisamutakeshi/vehicle-assistant-system/scenarios/dicomo2026/map_one/data/ishinomaki_two_shelter.sumocfg"/>
        <sumo-net-file value="/Users/kashiisamutakeshi/vehicle-assistant-system/scenarios/dicomo2026/map_one/data/ishinomaki_two_shelter.net.xml"/>
    </input>

    <output>
        <output-file value="/Users/kashiisamutakeshi/vehicle-assistant-system/scenarios/dicomo2026/map_one/data/ishinomaki_two_shelter.net.xml"/>
    </output>

    <processing>
        <geometry.min-radius.fix.railways value="false"/>
        <geometry.max-grade.fix value="false"/>
        <offset.disable-normalization value="true"/>
        <lefthand value="1"/>
    </processing>

    <junctions>
        <no-turnarounds value="true"/>
        <junctions.corner-detail value="5"/>
        <junctions.limit-turn-speed value="5.50"/>
        <rectangular-lane-cut value="0"/>
    </junctions>

    <pedestrian>
        <walkingareas value="0"/>
    </pedestrian>

</configuration>
-->

<net version="1.20" junctionCornerDetail="5" lefthand="true" limitTurnSpeed="5.50" xmlns:xsi="http://www.w3.org/2001/XMLSchema-instance" xsi:noNamespaceSchemaLocation="http://sumo.dlr.de/xsd/net_file.xsd">

    <location netOffset="-520703.59,-4250601.64" convBoundary="5483.07,2448.61,11028.38,6227.14" origBoundary="141.237328,38.305646,141.419841,38.482093" projParameter="+proj=utm +zone=54 +ellps=WGS84 +datum=WGS84 +units=m +no_defs"/>

    <type id="highway.primary" priority="12" numLanes="2" speed="27.78" disallow="tram rail_urban rail rail_electric rail_fast ship container cable_car subway aircraft wheelchair scooter drone" oneway="0"/>
    <type id="highway.secondary" priority="11" numLanes="1" speed="27.78" disallow="tram rail_urban rail rail_electric rail_fast ship container cable_car subway aircraft wheelchair scooter drone" oneway="0"/>
    <type id="highway.tertiary" priority="10" numLanes="1" speed="22.22" disallow="tram rail_urban rail rail_electric rail_fast ship container cable_car subway aircraft wheelchair scooter drone" oneway="0"/>
    <type id="highway.trunk" priority="13" numLanes="2" speed="27.78" disallow="pedestrian bicycle tram rail_urban rail rail_electric rail_fast ship container cable_car subway aircraft wheelchair scooter drone" oneway="0"/>

    <edge id=":1203996219_0" function="internal">
        <lane id=":1203996219_0_0" index="0" disallow="pedestrian bicycle tram rail_urban rail rail_electric rail_fast ship container cable_car subway aircraft wheelchair scooter drone" speed="6.64" length="8.78" shape="6297.55,3188.81 6295.36,3189.78 6293.35,3189.88 6291.50,3189.10 6289.82,3187.43"/>
        <lane id=":1203996219_0_1" index="1" disallow="pedestrian bicycle tram rail_urban rail rail_electric rail_fast ship container cable_car subway aircraft wheelchair scooter drone" speed="8.13" length="13.65" shape="6299.28,3191.50 6295.89,3193.02 6292.76,3193.17 6289.88,3191.95 6287.27,3189.37"/>
    </edge>
    <edge id=":1203996219_2" function="internal">
        <lane id=":1203996219_2_0" index="0" disallow="pedestrian bicycle tram rail_urban rail rail_electric rail_fast ship container cable_car subway aircraft wheelchair scooter drone" speed="8.45" length="16.39" shape="6299.28,3191.50 6295.36,3194.61 6293.28,3197.91 6293.04,3201.39 6294.64,3205.04"/>
    </edge>
    <edge id=":1203996219_3" function="internal">
        <lane id=":1203996219_3_0" index="0" disallow="pedestrian bicycle tram rail_urban rail rail_electric rail_fast ship container cable_car subway aircraft wheelchair scooter drone" speed="7.08" length="11.16" shape="6297.30,3203.26 6296.33,3200.91 6296.63,3198.61 6298.19,3196.37 6301.02,3194.19"/>
    </edge>
    <edge id=":1203996219_4" function="internal">
        <lane id=":1203996219_4_0" index="0" disallow="pedestrian tram rail_urban rail rail_electric rail_fast ship container cable_car subway aircraft wheelchair scooter drone" speed="20.84" length="17.36" shape="6297.30,3203.26 6294.81,3198.70 6293.71,3195.24 6292.53,3191.82 6289.82,3187.43"/>
        <lane id=":1203996219_4_1" index="1" disallow="pedestrian tram rail_urban rail rail_electric rail_fast ship container cable_car subway aircraft wheelchair scooter drone" speed="20.84" length="17.36" shape="6297.30,3203.26 6287.27,3189.37"/>
    </edge>
    <edge id=":1203996219_6" function="internal">
        <lane id=":1203996219_6_0" index="0" disallow="pedestrian tram rail_urban rail rail_electric rail_fast ship container cable_car subway aircraft wheelchair scooter drone" speed="20.84" length="16.95" shape="6284.72,3191.30 6294.64,3205.04"/>
    </edge>
    <edge id=":1203996219_7" function="internal">
        <lane id=":1203996219_7_0" index="0" disallow="pedestrian bicycle tram rail_urban rail rail_electric rail_fast ship container cable_car subway aircraft wheelchair scooter drone" speed="9.38" length="4.31" shape="6284.72,3191.30 6287.79,3194.33"/>
    </edge>
    <edge id=":1203996219_8" function="internal">
        <lane id=":1203996219_8_0" index="0" disallow="pedestrian bicycle tram rail_urban rail rail_electric rail_fast ship container cable_car subway aircraft wheelchair scooter drone" speed="9.38" length="14.21" shape="6287.79,3194.33 6288.27,3194.81 6292.16,3196.45 6296.41,3196.25 6301.02,3194.19"/>
    </edge>
    <edge id=":1203996238_0" function="internal">
        <lane id=":1203996238_0_0" index="0" disallow="pedestrian bicycle tram rail_urban rail rail_electric rail_fast ship container cable_car subway aircraft wheelchair scooter drone" speed="20.84" length="3.95" shape="6800.63,2653.82 6796.08,2654.70"/>
        <lane id=":1203996238_0_1" index="1" disallow="pedestrian bicycle tram rail_urban rail rail_electric rail_fast ship container cable_car subway aircraft wheelchair scooter drone" speed="20.84" length="3.95" shape="6800.63,2653.82 6798.74,2656.48"/>
    </edge>
    <edge id=":1203996238_2" function="internal">
        <lane id=":1203996238_2_0" index="0" disallow="pedestrian bicycle tram rail_urban rail rail_electric rail_fast ship container cable_car subway aircraft wheelchair scooter drone" speed="3.64" length="1.29" shape="6801.33,2658.21 6801.33,2656.92"/>
    </edge>
    <edge id=":1203996238_3" function="internal">
        <lane id=":1203996238_3_0" index="0" disallow="pedestrian bicycle tram rail_urban rail rail_electric rail_fast ship container cable_car subway aircraft wheelchair scooter drone" speed="3.64" length="3.27" shape="6801.33,2656.92 6801.33,2656.80 6800.90,2656.05 6800.04,2655.94 6798.74,2656.48"/>
    </edge>
    <edge id=":1203997790_0" function="internal">
        <lane id=":1203997790_0_0" index="0" disallow="pedestrian tram rail_urban rail rail_electric rail_fast ship container cable_car subway aircraft wheelchair scooter drone" speed="6.30" length="9.81" shape="7097.50,3684.98 7095.71,3687.10 7093.77,3687.97 7091.68,3687.58 7089.44,3685.93"/>
    </edge>
    <edge id=":1203997790_1" function="internal">
        <lane id=":1203997790_1_0" index="0" disallow="pedestrian tram rail_urban rail rail_electric rail_fast ship container cable_car subway aircraft wheelchair scooter drone" speed="18.05" length="19.15" shape="7100.22,3686.68 7097.16,3691.47 7094.89,3694.63 7092.32,3697.56 7088.41,3701.68"/>
    </edge>
    <edge id=":1203997790_2" function="internal">
        <lane id=":1203997790_2_0" index="0" disallow="pedestrian tram rail_urban rail rail_electric rail_fast ship container cable_car subway aircraft wheelchair scooter drone" speed="18.05" length="19.81" shape="7090.72,3703.89 7094.77,3699.63 7097.42,3696.60 7099.77,3693.33 7102.93,3688.37"/>
    </edge>
    <edge id=":1203997790_3" function="internal">
        <lane id=":1203997790_3_0" index="0" disallow="pedestrian tram rail_urban rail rail_electric rail_fast ship container cable_car subway aircraft wheelchair scooter drone" speed="9.55" length="4.58" shape="7090.72,3703.89 7093.32,3700.12"/>
    </edge>
    <edge id=":1203997790_6" function="internal">
        <lane id=":1203997790_6_0" index="0" disallow="pedestrian tram rail_urban rail rail_electric rail_fast ship container cable_car subway aircraft wheelchair scooter drone" speed="9.55" length="15.87" shape="7093.32,3700.12 7093.73,3699.54 7094.51,3695.10 7093.08,3690.56 7089.44,3685.93"/>
    </edge>
    <edge id=":1203997790_4" function="internal">
        <lane id=":1203997790_4_0" index="0" disallow="pedestrian tram rail_urban rail rail_electric rail_fast ship container cable_car subway aircraft wheelchair scooter drone" speed="7.72" length="12.99" shape="7084.95,3690.50 7087.90,3693.88 7089.46,3696.88 7089.63,3699.48 7088.41,3701.68"/>
    </edge>
    <edge id=":1203997790_5" function="internal">
        <lane id=":1203997790_5_0" index="0" disallow="pedestrian tram rail_urban rail rail_electric rail_fast ship container cable_car subway aircraft wheelchair scooter drone" speed="8.51" length="18.91" shape="7087.19,3688.21 7091.86,3691.84 7096.03,3693.08 7099.72,3691.92 7102.93,3688.37"/>
    </edge>
    <edge id=":1203997796_0" function="internal">
        <lane id=":1203997796_0_0" index="0" disallow="pedestrian" speed="13.89" length="0.29" shape="6957.73,3556.36 6957.52,3556.16"/>
    </edge>
    <edge id=":1203997796_1" function="internal">
        <lane id=":1203997796_1_0" index="0" disallow="pedestrian" speed="13.89" length="0.30" shape="6953.02,3560.71 6953.24,3560.93"/>
        <lane id=":1203997796_1_1" index="1" disallow="pedestrian" speed="13.89" length="0.30" shape="6955.27,3558.43 6955.48,3558.64"/>
    </edge>
    <edge id=":1204005890_0" function="internal">
        <lane id=":1204005890_0_0" index="0" disallow="pedestrian" speed="9.94" length="4.95" shape="5965.39,2752.53 5964.53,2751.35 5964.05,2750.45 5963.80,2749.46 5963.64,2748.01"/>
    </edge>
    <edge id=":1204005890_1" function="internal">
        <lane id=":1204005890_1_0" index="0" disallow="pedestrian" speed="12.83" length="8.41" shape="5960.45,2748.31 5960.24,2750.81 5959.60,2752.64 5959.33,2754.32 5960.27,2756.38"/>
    </edge>
    <edge id=":2167445295_0" function="internal">
        <lane id=":2167445295_0_0" index="0" disallow="pedestrian tram rail_urban rail rail_electric rail_fast ship container cable_car subway aircraft wheelchair scooter drone" speed="20.84" length="0.63" shape="6690.19,3191.56 6690.11,3191.39 6690.06,3191.27 6690.02,3191.15 6689.97,3190.97"/>
    </edge>
    <edge id=":2167445295_1" function="internal">
        <lane id=":2167445295_1_0" index="0" disallow="pedestrian tram rail_urban rail rail_electric rail_fast ship container cable_car subway aircraft wheelchair scooter drone" speed="20.84" length="1.48" shape="6683.80,3192.68 6683.94,3193.18 6684.06,3193.52 6684.19,3193.85 6684.42,3194.32"/>
        <lane id=":2167445295_1_1" index="1" disallow="pedestrian tram rail_urban rail rail_electric rail_fast ship container cable_car subway aircraft wheelchair scooter drone" speed="20.84" length="1.48" shape="6686.89,3191.83 6686.98,3192.17 6687.06,3192.40 6687.15,3192.62 6687.30,3192.94"/>
    </edge>
    <edge id=":2167445295_3" function="internal">
        <lane id=":2167445295_3_0" index="0" disallow="pedestrian tram rail_urban rail rail_electric rail_fast ship container cable_car subway aircraft wheelchair scooter drone" speed="3.65" length="1.44" shape="6686.89,3191.83 6687.98,3192.77"/>
    </edge>
    <edge id=":2167445295_4" function="internal">
        <lane id=":2167445295_4_0" index="0" disallow="pedestrian tram rail_urban rail rail_electric rail_fast ship container cable_car subway aircraft wheelchair scooter drone" speed="3.65" length="3.23" shape="6687.98,3192.77 6688.86,3192.94 6689.52,3192.34 6689.97,3190.97"/>
    </edge>
    <edge id=":2167445839_0" function="internal">
        <lane id=":2167445839_0_0" index="0" disallow="pedestrian tram rail_urban rail rail_electric rail_fast ship container cable_car subway aircraft wheelchair scooter drone" speed="20.84" length="0.33" shape="6822.33,3422.72 6822.10,3422.49"/>
    </edge>
    <edge id=":2167445839_1" function="internal">
        <lane id=":2167445839_1_0" index="0" disallow="pedestrian tram rail_urban rail rail_electric rail_fast ship container cable_car subway aircraft wheelchair scooter drone" speed="20.84" length="0.28" shape="6817.65,3427.09 6817.84,3427.28"/>
        <lane id=":2167445839_1_1" index="1" disallow="pedestrian tram rail_urban rail rail_electric rail_fast ship container cable_car subway aircraft wheelchair scooter drone" speed="20.84" length="0.28" shape="6819.88,3424.79 6820.09,3425.00"/>
    </edge>
    <edge id=":2167445839_3" function="internal">
        <lane id=":2167445839_3_0" index="0" disallow="pedestrian tram rail_urban rail rail_electric rail_fast ship container cable_car subway aircraft wheelchair scooter drone" speed="3.65" length="2.34" shape="6819.88,3424.79 6821.29,3425.05 6822.14,3424.76"/>
    </edge>
    <edge id=":2167445839_4" function="internal">
        <lane id=":2167445839_4_0" index="0" disallow="pedestrian tram rail_urban rail rail_electric rail_fast ship container cable_car subway aircraft wheelchair scooter drone" speed="3.65" length="2.34" shape="6822.14,3424.76 6822.41,3423.90 6822.10,3422.49"/>
    </edge>
    <edge id=":2177225738_0" function="internal">
        <lane id=":2177225738_0_0" index="0" disallow="pedestrian" speed="13.89" length="0.31" shape="6081.97,2907.65 6081.77,2907.38"/>
        <lane id=":2177225738_0_1" index="1" disallow="pedestrian" speed="13.89" length="0.31" shape="6079.38,2909.53 6079.21,2909.30"/>
    </edge>
    <edge id=":2177225738_2" function="internal">
        <lane id=":2177225738_2_0" index="0" disallow="pedestrian" speed="13.89" length="0.25" shape="6076.65,2911.22 6076.80,2911.42"/>
    </edge>
    <edge id=":2177225895_0" function="internal">
        <lane id=":2177225895_0_0" index="0" disallow="pedestrian tram rail_urban rail rail_electric rail_fast ship container cable_car subway aircraft wheelchair scooter drone" speed="20.84" length="0.42" shape="6353.75,3856.54 6353.75,3856.67 6353.75,3856.75 6353.74,3856.84 6353.72,3856.96"/>
    </edge>
    <edge id=":2177225895_1" function="internal">
        <lane id=":2177225895_1_0" index="0" disallow="pedestrian tram rail_urban rail rail_electric rail_fast ship container cable_car subway aircraft wheelchair scooter drone" speed="3.65" length="1.44" shape="6353.75,3856.54 6354.54,3857.75"/>
    </edge>
    <edge id=":2177225895_3" function="internal">
        <lane id=":2177225895_3_0" index="0" disallow="pedestrian tram rail_urban rail rail_electric rail_fast ship container cable_car subway aircraft wheelchair scooter drone" speed="3.65" length="3.23" shape="6354.54,3857.75 6355.34,3858.16 6356.14,3857.76 6356.95,3856.57"/>
    </edge>
    <edge id=":2177225895_2" function="internal">
        <lane id=":2177225895_2_0" index="0" disallow="pedestrian tram rail_urban rail rail_electric rail_fast ship container cable_car subway aircraft wheelchair scooter drone" speed="20.84" length="0.79" shape="6356.90,3857.36 6356.93,3857.13 6356.94,3856.97 6356.95,3856.81 6356.95,3856.57"/>
    </edge>
    <edge id=":461223939_0" function="internal">
        <lane id=":461223939_0_0" index="0" disallow="pedestrian tram rail_urban rail rail_electric rail_fast ship container cable_car subway aircraft wheelchair scooter drone" speed="7.17" length="9.19" shape="6420.60,3340.03 6420.89,3337.59 6420.42,3335.50 6419.19,3333.74 6417.20,3332.31"/>
    </edge>
    <edge id=":461223939_1" function="internal">
        <lane id=":461223939_1_0" index="0" disallow="pedestrian tram rail_urban rail rail_electric rail_fast ship container cable_car subway aircraft wheelchair scooter drone" speed="5.41" length="4.87" shape="6415.70,3335.14 6416.76,3335.89 6417.41,3336.83 6417.66,3337.94 6417.50,3339.22"/>
    </edge>
    <edge id=":461225313_0" function="internal">
        <lane id=":461225313_0_0" index="0" disallow="pedestrian" speed="13.89" length="0.27" shape="6369.31,3525.39 6369.24,3525.64"/>
    </edge>
    <edge id=":461225313_1" function="internal">
        <lane id=":461225313_1_0" index="0" disallow="pedestrian" speed="13.89" length="0.31" shape="6372.32,3526.49 6372.41,3526.19"/>
    </edge>
    <edge id=":8261929251_0" function="internal">
        <lane id=":8261929251_0_0" index="0" disallow="pedestrian bicycle tram rail_urban rail rail_electric rail_fast ship container cable_car subway aircraft wheelchair scooter drone" speed="8.30" length="11.26" shape="6686.71,2808.15 6685.33,2809.82 6683.17,2810.88 6680.23,2811.32 6676.52,2811.14"/>
    </edge>
    <edge id=":8261929251_1" function="internal">
        <lane id=":8261929251_1_0" index="0" disallow="pedestrian bicycle tram rail_urban rail rail_electric rail_fast ship container cable_car subway aircraft wheelchair scooter drone" speed="20.84" length="17.12" shape="6686.71,2808.15 6684.40,2812.78 6682.94,2816.01 6681.74,2819.34 6680.20,2824.27"/>
        <lane id=":8261929251_1_1" index="1" disallow="pedestrian bicycle tram rail_urban rail rail_electric rail_fast ship container cable_car subway aircraft wheelchair scooter drone" speed="20.84" length="17.12" shape="6689.53,2809.66 6687.31,2814.12 6685.90,2817.23 6684.74,2820.45 6683.26,2825.21"/>
    </edge>
    <edge id=":8261929251_3" function="internal">
        <lane id=":8261929251_3_0" index="0" disallow="pedestrian bicycle tram rail_urban rail rail_electric rail_fast ship container cable_car subway aircraft wheelchair scooter drone" speed="20.84" length="16.18" shape="6686.35,2826.15 6687.76,2821.56 6688.87,2818.47 6690.22,2815.46 6692.35,2811.17"/>
    </edge>
    <edge id=":8261929251_4" function="internal">
        <lane id=":8261929251_4_0" index="0" disallow="pedestrian tram rail_urban rail rail_electric rail_fast ship container cable_car subway aircraft wheelchair scooter drone" speed="8.55" length="3.98" shape="6686.35,2826.15 6686.80,2822.19"/>
    </edge>
    <edge id=":8261929251_7" function="internal">
        <lane id=":8261929251_7_0" index="0" disallow="pedestrian tram rail_urban rail rail_electric rail_fast ship container cable_car subway aircraft wheelchair scooter drone" speed="8.55" length="14.55" shape="6686.80,2822.19 6686.87,2821.56 6685.34,2818.06 6681.77,2815.65 6676.15,2814.32"/>
    </edge>
    <edge id=":8261929251_5" function="internal">
        <lane id=":8261929251_5_0" index="0" disallow="pedestrian tram rail_urban rail rail_electric rail_fast ship container cable_car subway aircraft wheelchair scooter drone" speed="6.33" length="9.66" shape="6675.77,2817.50 6678.40,2818.20 6680.01,2819.56 6680.61,2821.58 6680.20,2824.27"/>
    </edge>
    <edge id=":8261929251_6" function="internal">
        <lane id=":8261929251_6_0" index="0" disallow="pedestrian bicycle tram rail_urban rail rail_electric rail_fast ship container cable_car subway aircraft wheelchair scooter drone" speed="10.62" length="18.95" shape="6675.77,2817.50 6681.55,2817.66 6686.25,2816.66 6689.85,2814.49 6692.35,2811.17"/>
    </edge>
    <edge id=":8543655884_0" function="internal">
        <lane id=":8543655884_0_0" index="0" disallow="pedestrian tram rail_urban rail rail_electric rail_fast ship container cable_car subway aircraft wheelchair scooter drone" speed="13.89" length="3.57" shape="7287.12,3433.13 7282.79,3433.23"/>
        <lane id=":8543655884_0_1" index="1" disallow="pedestrian tram rail_urban rail rail_electric rail_fast ship container cable_car subway aircraft wheelchair scooter drone" speed="13.89" length="3.57" shape="7287.12,3433.13 7285.27,3435.25"/>
    </edge>
    <edge id=":8543655884_2" function="internal">
        <lane id=":8543655884_2_0" index="0" disallow="pedestrian tram rail_urban rail rail_electric rail_fast ship container cable_car subway aircraft wheelchair scooter drone" speed="3.65" length="1.44" shape="7287.75,3437.28 7287.89,3435.84"/>
    </edge>
    <edge id=":8543655884_3" function="internal">
        <lane id=":8543655884_3_0" index="0" disallow="pedestrian tram rail_urban rail rail_electric rail_fast ship container cable_car subway aircraft wheelchair scooter drone" speed="3.65" length="3.23" shape="7287.89,3435.84 7287.52,3435.02 7286.65,3434.83 7285.27,3435.25"/>
    </edge>
    <edge id=":8689576226_0" function="internal">
        <lane id=":8689576226_0_0" index="0" disallow="pedestrian tram rail_urban rail rail_electric rail_fast ship container cable_car subway aircraft wheelchair scooter drone" speed="27.78" length="0.39" shape="6638.48,3005.59 6638.37,3005.22"/>
    </edge>
    <edge id=":8689576226_1" function="internal">
        <lane id=":8689576226_1_0" index="0" disallow="pedestrian tram rail_urban rail rail_electric rail_fast ship container cable_car subway aircraft wheelchair scooter drone" speed="3.65" length="2.34" shape="6638.48,3005.59 6637.40,3004.63 6636.52,3004.45"/>
    </edge>
    <edge id=":8689576226_5" function="internal">
        <lane id=":8689576226_5_0" index="0" disallow="pedestrian tram rail_urban rail rail_electric rail_fast ship container cable_car subway aircraft wheelchair scooter drone" speed="3.65" length="2.34" shape="6636.52,3004.45 6635.85,3005.04 6635.38,3006.40"/>
    </edge>
    <edge id=":8689576226_2" function="internal">
        <lane id=":8689576226_2_0" index="0" disallow="pedestrian tram rail_urban rail rail_electric rail_fast ship container cable_car subway aircraft wheelchair scooter drone" speed="27.78" length="0.24" shape="6632.23,3007.02 6632.28,3007.20"/>
        <lane id=":8689576226_2_1" index="1" disallow="pedestrian tram rail_urban rail rail_electric rail_fast ship container cable_car subway aircraft wheelchair scooter drone" speed="27.78" length="0.24" shape="6635.30,3006.12 6635.38,3006.40"/>
    </edge>
    <edge id=":8689576226_4" function="internal">
        <lane id=":8689576226_4_0" index="0" disallow="pedestrian tram rail_urban rail rail_electric rail_fast ship container cable_car subway aircraft wheelchair scooter drone" speed="3.65" length="2.34" shape="6635.30,3006.12 6636.41,3007.04 6637.29,3007.20"/>
    </edge>
    <edge id=":8689576226_6" function="internal">
        <lane id=":8689576226_6_0" index="0" disallow="pedestrian tram rail_urban rail rail_electric rail_fast ship container cable_car subway aircraft wheelchair scooter drone" speed="3.65" length="2.34" shape="6637.29,3007.20 6637.94,3006.59 6638.37,3005.22"/>
    </edge>
    <edge id=":8706501852_0" function="internal">
        <lane id=":8706501852_0_0" index="0" disallow="pedestrian" speed="13.89" length="0.43" shape="6327.94,4027.97 6327.74,4028.34"/>
    </edge>
    <edge id=":8706501852_1" function="internal">
        <lane id=":8706501852_1_0" index="0" disallow="pedestrian" speed="13.89" length="0.61" shape="6330.55,4029.87 6330.82,4029.32"/>
    </edge>
    <edge id=":942328424_0" function="internal">
        <lane id=":942328424_0_0" index="0" disallow="pedestrian tram rail_urban rail rail_electric rail_fast ship container cable_car subway aircraft wheelchair scooter drone" speed="18.05" length="0.99" shape="6713.90,4080.84 6713.70,4081.05 6713.56,4081.20 6713.44,4081.36 6713.27,4081.59"/>
    </edge>
    <edge id=":942328424_1" function="internal">
        <lane id=":942328424_1_0" index="0" disallow="pedestrian tram rail_urban rail rail_electric rail_fast ship container cable_car subway aircraft wheelchair scooter drone" speed="18.05" length="0.52" shape="6715.86,4083.47 6715.95,4083.34 6716.02,4083.26 6716.09,4083.18 6716.20,4083.07"/>
    </edge>
    <edge id=":942328430_0" function="internal">
        <lane id=":942328430_0_0" index="0" disallow="pedestrian tram rail_urban rail rail_electric rail_fast ship container cable_car subway aircraft wheelchair scooter drone" speed="13.89" length="0.71" shape="7190.80,3546.00 7190.29,3546.67"/>
        <lane id=":942328430_0_1" index="1" disallow="pedestrian tram rail_urban rail rail_electric rail_fast ship container cable_car subway aircraft wheelchair scooter drone" speed="13.89" length="0.71" shape="7193.28,3548.02 7192.94,3548.48"/>
    </edge>
    <edge id=":942328430_2" function="internal">
        <lane id=":942328430_2_0" index="0" disallow="pedestrian tram rail_urban rail rail_electric rail_fast ship container cable_car subway aircraft wheelchair scooter drone" speed="3.65" length="4.67" shape="7193.28,3548.02 7193.14,3549.45 7193.51,3550.27 7194.38,3550.47 7195.76,3550.04"/>
    </edge>
    <edge id=":942328430_3" function="internal">
        <lane id=":942328430_3_0" index="0" disallow="pedestrian tram rail_urban rail rail_electric rail_fast ship container cable_car subway aircraft wheelchair scooter drone" speed="13.89" length="0.30" shape="7195.58,3550.28 7195.76,3550.04"/>
    </edge>
    <edge id=":942328430_4" function="internal">
        <lane id=":942328430_4_0" index="0" disallow="pedestrian tram rail_urban rail rail_electric rail_fast ship container cable_car subway aircraft wheelchair scooter drone" speed="3.65" length="4.67" shape="7195.58,3550.28 7195.59,3548.84 7195.16,3548.06 7194.27,3547.94 7192.94,3548.48"/>
    </edge>
    <edge id=":J10_0" function="internal">
        <lane id=":J10_0_0" index="0" disallow="pedestrian" speed="13.89" length="2.59" shape="6605.00,2988.64 6604.55,2989.19 6604.25,2989.58 6603.92,2989.93 6603.36,2990.35"/>
        <lane id=":J10_0_1" index="1" disallow="pedestrian" speed="13.89" length="2.59" shape="6607.13,2991.06 6606.60,2991.70 6606.23,2992.13 6605.81,2992.52 6605.14,2993.00"/>
    </edge>
    <edge id=":J10_2" function="internal">
        <lane id=":J10_2_0" index="0" disallow="pedestrian" speed="13.89" length="3.20" shape="6606.93,2995.66 6607.71,2995.12 6608.23,2994.72 6608.72,2994.30 6609.43,2993.66"/>
    </edge>
    <edge id=":J12_0" function="internal">
        <lane id=":J12_0_0" index="0" disallow="pedestrian tram rail_urban rail rail_electric rail_fast ship container cable_car subway aircraft wheelchair scooter drone" speed="27.78" length="0.10" shape="6619.13,2891.11 6619.13,2891.11"/>
    </edge>
    <edge id=":J12_1" function="internal">
        <lane id=":J12_1_0" index="0" disallow="pedestrian tram rail_urban rail rail_electric rail_fast ship container cable_car subway aircraft wheelchair scooter drone" speed="27.78" length="0.10" shape="6612.73,2891.36 6612.73,2891.36"/>
        <lane id=":J12_1_1" index="1" disallow="pedestrian tram rail_urban rail rail_electric rail_fast ship container cable_car subway aircraft wheelchair scooter drone" speed="27.78" length="0.10" shape="6615.93,2891.23 6615.93,2891.23"/>
    </edge>
    <edge id=":J13_0" function="internal">
        <lane id=":J13_0_0" index="0" disallow="pedestrian" speed="13.89" length="0.10" shape="6275.23,4125.22 6275.23,4125.22"/>
    </edge>
    <edge id=":J13_1" function="internal">
        <lane id=":J13_1_0" index="0" disallow="pedestrian" speed="13.89" length="0.10" shape="6278.05,4126.74 6278.05,4126.74"/>
    </edge>
    <edge id=":J14_0" function="internal">
        <lane id=":J14_0_0" index="0" disallow="pedestrian" speed="13.89" length="3.00" shape="5948.90,2591.92 5948.63,2588.93"/>
    </edge>
    <edge id=":J3_0" function="internal">
        <lane id=":J3_0_0" index="0" disallow="pedestrian tram rail_urban rail rail_electric rail_fast ship container cable_car subway aircraft wheelchair scooter drone" speed="20.84" length="0.33" shape="6348.02,3715.29 6348.01,3715.20 6348.00,3715.13 6348.00,3715.06 6347.99,3714.97"/>
    </edge>
    <edge id=":J3_1" function="internal">
        <lane id=":J3_1_0" index="0" disallow="pedestrian tram rail_urban rail rail_electric rail_fast ship container cable_car subway aircraft wheelchair scooter drone" speed="20.84" length="0.62" shape="6344.78,3715.06 6344.84,3715.67"/>
    </edge>
    <edge id=":J5_0" function="internal">
        <lane id=":J5_0_0" index="0" disallow="pedestrian" speed="13.89" length="0.31" shape="6016.99,4228.05 6016.68,4228.02"/>
    </edge>
    <edge id=":J5_1" function="internal">
        <lane id=":J5_1_0" index="0" disallow="pedestrian" speed="13.89" length="0.28" shape="6016.40,4231.21 6016.68,4231.24"/>
    </edge>
    <edge id=":J6_0" function="internal">
        <lane id=":J6_0_0" index="0" disallow="pedestrian" speed="13.89" length="0.20" shape="5823.63,4210.87 5823.43,4210.85"/>
    </edge>
    <edge id=":J6_1" function="internal">
        <lane id=":J6_1_0" index="0" disallow="pedestrian" speed="13.89" length="0.30" shape="5823.04,4214.02 5823.34,4214.05"/>
    </edge>
    <edge id=":J7_0" function="internal">
        <lane id=":J7_0_0" index="0" disallow="pedestrian" speed="13.89" length="2.99" shape="5640.64,4188.79 5637.67,4188.42"/>
    </edge>
    <edge id=":J8_0" function="internal">
        <lane id=":J8_0_0" index="0" disallow="pedestrian tram rail_urban rail rail_electric rail_fast ship container cable_car subway aircraft wheelchair scooter drone" speed="22.22" length="0.20" shape="6957.22,3834.77 6957.08,3834.91"/>
    </edge>
    <edge id=":J8_1" function="internal">
        <lane id=":J8_1_0" index="0" disallow="pedestrian tram rail_urban rail rail_electric rail_fast ship container cable_car subway aircraft wheelchair scooter drone" speed="22.22" length="0.32" shape="6959.26,3837.25 6959.49,3837.02"/>
    </edge>
    <edge id=":J9_0" function="internal">
        <lane id=":J9_0_0" index="0" disallow="pedestrian tram rail_urban rail rail_electric rail_fast ship container cable_car subway aircraft wheelchair scooter drone" speed="22.22" length="0.27" shape="6822.27,3971.58 6822.08,3971.78"/>
    </edge>
    <edge id=":J9_1" function="internal">