<?xml version="1.0" encoding="UTF-8"?>

<!-- generated on 2026-04-21 21:09:38 by Eclipse SUMO netedit Version 1.20.0
<configuration xmlns:xsi="http://www.w3.org/2001/XMLSchema-instance" xsi:noNamespaceSchemaLocation="http://sumo.dlr.de/xsd/neteditConfiguration.xsd">

    <input>
        <sumocfg-file value="/Users/kashiisamutakeshi/vehicle-assistant-system/scenarios/dicomo2026/map_one/data/ishinomaki_two_shelter.sumocfg"/>
        <sumo-net-file value="/Users/kashiisamutakeshi/vehicle-assistant-system/scenarios/dicomo2026/map_one/data/ishinomaki_two_shelter.net.xml"/>
    </input>

    <output>
        <output-file value="/Users/kashiisamutakeshi/vehicle-assistant-system/scenarios/dicomo2026/map_one/data/ishinomaki_two_shelter.net.xml"/>
    </output>

    <processing>
        <geometry.min-radius.fix.railways value="false"/>
        <geometry.max-grade.fix value="false"/>
        <offset.disable-normalization value="true"/>
        <lefthand value="1"/>
    </processing>

    <junctions>
        <no-turnarounds value="true"/>
        <junctions.corner-detail value="5"/>
        <junctions.limit-turn-speed value="5.50"/>
        <rectangular-lane-cut value="0"/>
    </junctions>

    <pedestrian>
        <walkingareas value="0"/>
    </pedestrian>

</configuration>
-->

<net version="1.20" junctionCornerDetail="5" lefthand="true" limitTurnSpeed="5.50" xmlns:xsi="http://www.w3.org/2001/XMLSchema-instance" xsi:noNamespaceSchemaLocation="http://sumo.dlr.de/xsd/net_file.xsd">

    <location netOffset="-520703.59,-4250601.64" convBoundary="5483.07,2448.61,11028.38,6227.14" origBoundary="141.237328,38.305646,141.419841,38.482093" projParameter="+proj=utm +zone=54 +ellps=WGS84 +datum=WGS84 +units=m +no_defs"/>

    <type id="highway.primary" priority="12" numLanes="2" speed="27.78" disallow="tram rail_urban rail rail_electric rail_fast ship container cable_car subway aircraft wheelchair scooter drone" oneway="0"/>
    <type id="highway.secondary" priority="11" numLanes="1" speed="27.78" disallow="tram rail_urban rail rail_electric rail_fast ship container cable_car subway aircraft wheelchair scooter drone" oneway="0"/>
    <type id="highway.tertiary" priority="10" numLanes="1" speed="22.22" disallow="tram rail_urban rail rail_electric rail_fast ship container cable_car subway aircraft wheelchair scooter drone" oneway="0"/>
    <type id="highway.trunk" priority="13" numLanes="2" speed="27.78" disallow="pedestrian bicycle tram rail_urban rail rail_electric rail_fast ship container cable_car subway aircraft wheelchair scooter drone" oneway="0"/>

    <edge id=":1203996219_0" function="internal">
        <lane id=":1203996219_0_0" index="0" disallow="pedestrian bicycle tram rail_urban rail rail_electric rail_fast ship container cable_car subway aircraft wheelchair scooter drone" speed="6.77" length="9.18" shape="6297.17,3192.82 6294.81,3193.90 6292.67,3194.08 6290.75,3193.34 6289.04,3191.69"/>
    </edge>
    <edge id=":1203996219_1" function="internal">
        <lane id=":1203996219_1_0" index="0" disallow="pedestrian bicycle tram rail_urban rail rail_electric rail_fast ship container cable_car subway aircraft wheelchair scooter drone" speed="7.95" length="14.35" shape="6297.17,3192.82 6294.17,3195.36 6292.75,3198.24 6292.91,3201.47 6294.64,3205.04"/>
    </edge>
    <edge id=":1203996219_2" function="internal">
        <lane id=":1203996219_2_0" index="0" disallow="pedestrian bicycle tram rail_urban rail rail_electric rail_fast ship container cable_car subway aircraft wheelchair scooter drone" speed="6.45" length="9.10" shape="6297.30,3203.26 6296.20,3200.99 6296.10,3198.94 6297.00,3197.12 6298.91,3195.50"/>
    </edge>
    <edge id=":1203996219_3" function="internal">
        <lane id=":1203996219_3_0" index="0" disallow="pedestrian tram rail_urban rail rail_electric rail_fast ship container cable_car subway aircraft wheelchair scooter drone" speed="20.84" length="14.21" shape="6297.30,3203.26 6289.04,3191.69"/>
    </edge>
    <edge id=":1203996219_4" function="internal">
        <lane id=":1203996219_4_0" index="0" disallow="pedestrian tram rail_urban rail rail_electric rail_fast ship container cable_car subway aircraft wheelchair scooter drone" speed="20.84" length="14.03" shape="6286.49,3193.63 6294.64,3205.04"/>
    </edge>
    <edge id=":1203996219_5" function="internal">
        <lane id=":1203996219_5_0" index="0" disallow="pedestrian bicycle tram rail_urban rail rail_electric rail_fast ship container cable_car subway aircraft wheelchair scooter drone" speed="8.24" length="3.68" shape="6286.49,3193.63 6289.13,3196.20"/>
    </edge>
    <edge id=":1203996219_6" function="internal">
        <lane id=":1203996219_6_0" index="0" disallow="pedestrian bicycle tram rail_urban rail rail_electric rail_fast ship container cable_car subway aircraft wheelchair scooter drone" speed="8.24" length="10.37" shape="6289.13,3196.20 6292.08,3197.36 6295.34,3197.13 6298.91,3195.50"/>
    </edge>
    <edge id=":1203996238_0" function="internal">
        <lane id=":1203996238_0_0" index="0" disallow="pedestrian bicycle tram rail_urban rail rail_electric rail_fast ship container cable_car subway aircraft wheelchair scooter drone" speed="20.84" length="3.26" shape="6800.63,2653.82 6798.74,2656.48"/>
    </edge>
    <edge id=":1203997790_0" function="internal">
        <lane id=":1203997790_0_0" index="0" disallow="pedestrian tram rail_urban rail rail_electric rail_fast ship container cable_car subway aircraft wheelchair scooter drone" speed="6.30" length="9.81" shape="7099.84,3687.28 7098.05,3689.40 7096.10,3690.27 7094.01,3689.88 7091.78,3688.23"/>
    </edge>
    <edge id=":1203997790_1" function="internal">
        <lane id=":1203997790_1_0" index="0" disallow="pedestrian tram rail_urban rail rail_electric rail_fast ship container cable_car subway aircraft wheelchair scooter drone" speed="18.05" length="15.25" shape="7099.84,3687.28 7097.44,3691.11 7095.69,3693.68 7093.71,3696.07 7090.62,3699.37"/>
    </edge>
    <edge id=":1203997790_2" function="internal">
        <lane id=":1203997790_2_0" index="0" disallow="pedestrian tram rail_urban rail rail_electric rail_fast ship container cable_car subway aircraft wheelchair scooter drone" speed="18.05" length="15.90" shape="7092.93,3701.58 7096.16,3698.14 7098.22,3695.65 7100.05,3692.97 7102.55,3688.98"/>
    </edge>
    <edge id=":1203997790_3" function="internal">
        <lane id=":1203997790_3_0" index="0" disallow="pedestrian tram rail_urban rail rail_electric rail_fast ship container cable_car subway aircraft wheelchair scooter drone" speed="8.31" length="3.87" shape="7092.93,3701.58 7095.12,3698.38"/>
    </edge>
    <edge id=":1203997790_6" function="internal">
        <lane id=":1203997790_6_0" index="0" disallow="pedestrian tram rail_urban rail rail_electric rail_fast ship container cable_car subway aircraft wheelchair scooter drone" speed="8.31" length="11.34" shape="7095.12,3698.38 7095.65,3695.09 7094.54,3691.71 7091.78,3688.23"/>
    </edge>
    <edge id=":1203997790_4" function="internal">
        <lane id=":1203997790_4_0" index="0" disallow="pedestrian tram rail_urban rail rail_electric rail_fast ship container cable_car subway aircraft wheelchair scooter drone" speed="6.88" length="10.10" shape="7089.53,3690.51 7091.45,3692.88 7092.26,3695.15 7091.99,3697.31 7090.62,3699.37"/>
    </edge>
    <edge id=":1203997790_5" function="internal">
        <lane id=":1203997790_5_0" index="0" disallow="pedestrian tram rail_urban rail rail_electric rail_fast ship container cable_car subway aircraft wheelchair scooter drone" speed="7.84" length="15.84" shape="7089.53,3690.51 7093.15,3693.17 7096.52,3693.80 7099.66,3692.40 7102.55,3688.98"/>
    </edge>
    <edge id=":1203997796_0" function="internal">
        <lane id=":1203997796_0_0" index="0" disallow="pedestrian" speed="13.89" length="0.30" shape="6957.73,3556.36 6957.52,3556.16"/>
    </edge>
    <edge id=":1203997796_1" function="internal">
        <lane id=":1203997796_1_0" index="0" disallow="pedestrian" speed="13.89" length="0.30" shape="6955.27,3558.43 6955.48,3558.65"/>
    </edge>
    <edge id=":1204005890_0" function="internal">
        <lane id=":1204005890_0_0" index="0" disallow="pedestrian" speed="6.52" length="2.00" shape="5965.06,2757.42 5964.72,2756.94 5964.52,2756.58 5964.42,2756.18 5964.35,2755.60"/>
    </edge>
    <edge id=":1204005890_1" function="internal">
        <lane id=":1204005890_1_0" index="0" disallow="pedestrian" speed="8.74" length="3.78" shape="5961.17,2755.90 5961.29,2757.01 5961.48,2757.76 5961.85,2758.44 5962.50,2759.35"/>
    </edge>
    <edge id=":2167445295_0" function="internal">
        <lane id=":2167445295_0_0" index="0" disallow="pedestrian tram rail_urban rail rail_electric rail_fast ship container cable_car subway aircraft wheelchair scooter drone" speed="20.84" length="0.63" shape="6690.19,3191.56 6690.11,3191.39 6690.06,3191.27 6690.02,3191.15 6689.97,3190.97"/>
    </edge>
    <edge id=":2167445295_1" function="internal">
        <lane id=":2167445295_1_0" index="0" disallow="pedestrian tram rail_urban rail rail_electric rail_fast ship container cable_car subway aircraft wheelchair scooter drone" speed="20.84" length="1.20" shape="6686.89,3191.83 6686.98,3192.17 6687.06,3192.40 6687.15,3192.62 6687.30,3192.94"/>
    </edge>
    <edge id=":2167445295_2" function="internal">
        <lane id=":2167445295_2_0" index="0" disallow="pedestrian tram rail_urban rail rail_electric rail_fast ship container cable_car subway aircraft wheelchair scooter drone" speed="3.65" length="1.44" shape="6686.89,3191.83 6687.98,3192.77"/>
    </edge>
    <edge id=":2167445295_3" function="internal">
        <lane id=":2167445295_3_0" index="0" disallow="pedestrian tram rail_urban rail rail_electric rail_fast ship container cable_car subway aircraft wheelchair scooter drone" speed="3.65" length="3.23" shape="6687.98,3192.77 6688.86,3192.94 6689.52,3192.34 6689.97,3190.97"/>
    </edge>
    <edge id=":2167445839_0" function="internal">
        <lane id=":2167445839_0_0" index="0" disallow="pedestrian tram rail_urban rail rail_electric rail_fast ship container cable_car subway aircraft wheelchair scooter drone" speed="20.84" length="0.31" shape="6822.33,3422.72 6822.11,3422.50"/>
    </edge>
    <edge id=":2167445839_1" function="internal">
        <lane id=":2167445839_1_0" index="0" disallow="pedestrian tram rail_urban rail rail_electric rail_fast ship container cable_car subway aircraft wheelchair scooter drone" speed="20.84" length="0.28" shape="6819.88,3424.80 6820.08,3424.99"/>
    </edge>
    <edge id=":2167445839_2" function="internal">
        <lane id=":2167445839_2_0" index="0" disallow="pedestrian tram rail_urban rail rail_electric rail_fast ship container cable_car subway aircraft wheelchair scooter drone" speed="3.65" length="2.34" shape="6819.88,3424.80 6821.30,3425.06 6822.14,3424.76"/>
    </edge>
    <edge id=":2167445839_3" function="internal">
        <lane id=":2167445839_3_0" index="0" disallow="pedestrian tram rail_urban rail rail_electric rail_fast ship container cable_car subway aircraft wheelchair scooter drone" speed="3.65" length="2.34" shape="6822.14,3424.76 6822.41,3423.91 6822.11,3422.50"/>
    </edge>
    <edge id=":2177225738_0" function="internal">
        <lane id=":2177225738_0_0" index="0" disallow="pedestrian" speed="13.89" length="0.31" shape="6079.39,2909.54 6079.20,2909.29"/>
    </edge>
    <edge id=":2177225738_1" function="internal">
        <lane id=":2177225738_1_0" index="0" disallow="pedestrian" speed="13.89" length="0.27" shape="6076.64,2911.22 6076.80,2911.43"/>
    </edge>
    <edge id=":2177225895_0" function="internal">
        <lane id=":2177225895_0_0" index="0" disallow="pedestrian tram rail_urban rail rail_electric rail_fast ship container cable_car subway aircraft wheelchair scooter drone" speed="20.84" length="0.42" shape="6353.75,3856.54 6353.75,3856.67 6353.75,3856.75 6353.74,3856.84 6353.72,3856.96"/>
    </edge>
    <edge id=":2177225895_1" function="internal">
        <lane id=":2177225895_1_0" index="0" disallow="pedestrian tram rail_urban rail rail_electric rail_fast ship container cable_car subway aircraft wheelchair scooter drone" speed="3.65" length="1.44" shape="6353.75,3856.54 6354.54,3857.75"/>
    </edge>
    <edge id=":2177225895_3" function="internal">
        <lane id=":2177225895_3_0" index="0" disallow="pedestrian tram rail_urban rail rail_electric rail_fast ship container cable_car subway aircraft wheelchair scooter drone" speed="3.65" length="3.23" shape="6354.54,3857.75 6355.34,3858.16 6356.14,3857.76 6356.95,3856.57"/>
    </edge>
    <edge id=":2177225895_2" function="internal">
        <lane id=":2177225895_2_0" index="0" disallow="pedestrian tram rail_urban rail rail_electric rail_fast ship container cable_car subway aircraft wheelchair scooter drone" speed="20.84" length="0.79" shape="6356.90,3857.36 6356.93,3857.13 6356.94,3856.97 6356.95,3856.81 6356.95,3856.57"/>
    </edge>
    <edge id=":461223939_0" function="internal">
        <lane id=":461223939_0_0" index="0" disallow="pedestrian tram rail_urban rail rail_electric rail_fast ship container cable_car subway aircraft wheelchair scooter drone" speed="7.17" length="9.19" shape="6420.60,3340.03 6420.89,3337.59 6420.42,3335.50 6419.19,3333.74 6417.20,3332.31"/>
    </edge>
    <edge id=":461223939_1" function="internal">
        <lane id=":461223939_1_0" index="0" disallow="pedestrian tram rail_urban rail rail_electric rail_fast ship container cable_car subway aircraft wheelchair scooter drone" speed="5.41" length="4.87" shape="6415.70,3335.14 6416.76,3335.89 6417.41,3336.83 6417.66,3337.94 6417.50,3339.22"/>
    </edge>
    <edge id=":461225313_0" function="internal">
        <lane id=":461225313_0_0" index="0" disallow="pedestrian" speed="13.89" length="0.27" shape="6369.31,3525.39 6369.24,3525.64"/>
    </edge>
    <edge id=":461225313_1" function="internal">
        <lane id=":461225313_1_0" index="0" disallow="pedestrian" speed="13.89" length="0.31" shape="6372.32,3526.49 6372.41,3526.19"/>
    </edge>
    <edge id=":8261929251_0" function="internal">
        <lane id=":8261929251_0_0" index="0" disallow="pedestrian bicycle tram rail_urban rail rail_electric rail_fast ship container cable_car subway aircraft wheelchair scooter drone" speed="7.96" length="10.31" shape="6688.56,2811.60 6687.24,2813.27 6685.27,2814.35 6682.65,2814.82 6679.38,2814.70"/>
    </edge>
    <edge id=":8261929251_1" function="internal">
        <lane id=":8261929251_1_0" index="0" disallow="pedestrian bicycle tram rail_urban rail rail_electric rail_fast ship container cable_car subway aircraft wheelchair scooter drone" speed="20.84" length="14.05" shape="6688.56,2811.60 6686.72,2815.34 6685.58,2817.96 6684.65,2820.66 6683.43,2824.65"/>
    </edge>
    <edge id=":8261929251_2" function="internal">
        <lane id=":8261929251_2_0" index="0" disallow="pedestrian bicycle tram rail_urban rail rail_electric rail_fast ship container cable_car subway aircraft wheelchair scooter drone" speed="20.84" length="13.43" shape="6686.52,2825.60 6687.67,2821.78 6688.55,2819.19 6689.62,2816.69 6691.38,2813.11"/>
    </edge>
    <edge id=":8261929251_3" function="internal">
        <lane id=":8261929251_3_0" index="0" disallow="pedestrian tram rail_urban rail rail_electric rail_fast ship container cable_car subway aircraft wheelchair scooter drone" speed="7.87" length="15.54" shape="6686.52,2825.60 6687.17,2821.27 6686.19,2818.02 6683.60,2815.82 6679.38,2814.70"/>
    </edge>
    <edge id=":8261929251_4" function="internal">
        <lane id=":8261929251_4_0" index="0" disallow="pedestrian tram rail_urban rail rail_electric rail_fast ship container cable_car subway aircraft wheelchair scooter drone" speed="6.33" length="9.66" shape="6679.00,2817.88 6681.63,2818.58 6683.24,2819.94 6683.84,2821.96 6683.43,2824.65"/>
    </edge>
    <edge id=":8261929251_5" function="internal">
        <lane id=":8261929251_5_0" index="0" disallow="pedestrian bicycle tram rail_urban rail rail_electric rail_fast ship container cable_car subway aircraft wheelchair scooter drone" speed="9.24" length="14.16" shape="6679.00,2817.88 6683.31,2818.00 6686.81,2817.24 6689.50,2815.61 6691.38,2813.11"/>
    </edge>
    <edge id=":8543655884_0" function="internal">
        <lane id=":8543655884_0_0" index="0" disallow="pedestrian tram rail_urban rail rail_electric rail_fast ship container cable_car subway aircraft wheelchair scooter drone" speed="13.89" length="2.86" shape="7287.15,3433.09 7285.27,3435.25"/>
    </edge>
    <edge id=":8543655884_1" function="internal">
        <lane id=":8543655884_1_0" index="0" disallow="pedestrian tram rail_urban rail rail_electric rail_fast ship container cable_car subway aircraft wheelchair scooter drone" speed="3.65" length="1.44" shape="7287.75,3437.28 7287.89,3435.84"/>
    </edge>
    <edge id=":8543655884_2" function="internal">
        <lane id=":8543655884_2_0" index="0" disallow="pedestrian tram rail_urban rail rail_electric rail_fast ship container cable_car subway aircraft wheelchair scooter drone" speed="3.65" length="3.23" shape="7287.89,3435.84 7287.52,3435.02 7286.65,3434.83 7285.27,3435.25"/>
    </edge>
    <edge id=":8689576226_0" function="internal">
        <lane id=":8689576226_0_0" index="0" disallow="pedestrian tram rail_urban rail rail_electric rail_fast ship container cable_car subway aircraft wheelchair scooter drone" speed="27.78" length="0.30" shape="6638.47,3005.57 6638.39,3005.28"/>
    </edge>
    <edge id=":8689576226_1" function="internal">
        <lane id=":8689576226_1_0" index="0" disallow="pedestrian tram rail_urban rail rail_electric rail_fast ship container cable_car subway aircraft wheelchair scooter drone" speed="3.65" length="2.34" shape="6638.47,3005.57 6637.39,3004.61 6636.52,3004.42"/>
    </edge>
    <edge id=":8689576226_4" function="internal">
        <lane id=":8689576226_4_0" index="0" disallow="pedestrian tram rail_urban rail rail_electric rail_fast ship container cable_car subway aircraft wheelchair scooter drone" speed="3.65" length="2.34" shape="6636.52,3004.42 6635.84,3005.01 6635.37,3006.37"/>
    </edge>
    <edge id=":8689576226_2" function="internal">
        <lane id=":8689576226_2_0" index="0" disallow="pedestrian tram rail_urban rail rail_electric rail_fast ship container cable_car subway aircraft wheelchair scooter drone" speed="27.78" length="0.20" shape="6635.32,3006.18 6635.37,3006.37"/>
    </edge>
    <edge id=":8689576226_3" function="internal">
        <lane id=":8689576226_3_0" index="0" disallow="pedestrian tram rail_urban rail rail_electric rail_fast ship container cable_car subway aircraft wheelchair scooter drone" speed="3.65" length="2.34" shape="6635.32,3006.18 6636.43,3007.11 6637.31,3007.26"/>
    </edge>
    <edge id=":8689576226_5" function="internal">
        <lane id=":8689576226_5_0" index="0" disallow="pedestrian tram rail_urban rail rail_electric rail_fast ship container cable_car subway aircraft wheelchair scooter drone" speed="3.65" length="2.34" shape="6637.31,3007.26 6637.96,3006.66 6638.39,3005.28"/>
    </edge>
    <edge id=":8706501852_0" function="internal">
        <lane id=":8706501852_0_0" index="0" disallow="pedestrian" speed="13.89" length="0.43" shape="6327.94,4027.97 6327.74,4028.34"/>
    </edge>
    <edge id=":8706501852_1" function="internal">
        <lane id=":8706501852_1_0" index="0" disallow="pedestrian" speed="13.89" length="0.61" shape="6330.55,4029.87 6330.82,4029.32"/>
    </edge>
    <edge id=":942328424_0" function="internal">
        <lane id=":942328424_0_0" index="0" disallow="pedestrian tram rail_urban rail rail_electric rail_fast ship container cable_car subway aircraft wheelchair scooter drone" speed="18.05" length="0.99" shape="6713.90,4080.84 6713.70,4081.05 6713.56,4081.20 6713.44,4081.36 6713.27,4081.59"/>
    </edge>
    <edge id=":942328424_1" function="internal">
        <lane id=":942328424_1_0" index="0" disallow="pedestrian tram rail_urban rail rail_electric rail_fast ship container cable_car subway aircraft wheelchair scooter drone" speed="18.05" length="0.52" shape="6715.86,4083.47 6715.95,4083.34 6716.02,4083.26 6716.09,4083.18 6716.20,4083.07"/>
    </edge>
    <edge id=":942328430_0" function="internal">
        <lane id=":942328430_0_0" index="0" disallow="pedestrian tram rail_urban rail rail_electric rail_fast ship container cable_car subway aircraft wheelchair scooter drone" speed="13.89" length="0.57" shape="7193.28,3548.02 7192.94,3548.48"/>
    </edge>
    <edge id=":942328430_1" function="internal">
        <lane id=":942328430_1_0" index="0" disallow="pedestrian tram rail_urban rail rail_electric rail_fast ship container cable_car subway aircraft wheelchair scooter drone" speed="3.65" length="2.34" shape="7193.28,3548.02 7193.14,3549.45 7193.51,3550.27"/>
    </edge>
    <edge id=":942328430_4" function="internal">
        <lane id=":942328430_4_0" index="0" disallow="pedestrian tram rail_urban rail rail_electric rail_fast ship container cable_car subway aircraft wheelchair scooter drone" speed="3.65" length="2.34" shape="7193.51,3550.27 7194.38,3550.47 7195.76,3550.04"/>
    </edge>
    <edge id=":942328430_2" function="internal">
        <lane id=":942328430_2_0" index="0" disallow="pedestrian tram rail_urban rail rail_electric rail_fast ship container cable_car subway aircraft wheelchair scooter drone" speed="13.89" length="0.30" shape="7195.58,3550.28 7195.76,3550.04"/>
    </edge>
    <edge id=":942328430_3" function="internal">
        <lane id=":942328430_3_0" index="0" disallow="pedestrian tram rail_urban rail rail_electric rail_fast ship container cable_car subway aircraft wheelchair scooter drone" speed="3.65" length="2.34" shape="7195.58,3550.28 7195.59,3548.84 7195.16,3548.06"/>
    </edge>
    <edge id=":942328430_5" function="internal">
        <lane id=":942328430_5_0" index="0" disallow="pedestrian tram rail_urban rail rail_electric rail_fast ship container cable_car subway aircraft wheelchair scooter drone" speed="3.65" length="2.34" shape="7195.16,3548.06 7194.27,3547.94 7192.94,3548.48"/>
    </edge>
    <edge id=":J10_0" function="internal">
        <lane id=":J10_0_0" index="0" disallow="pedestrian" speed="13.89" length="2.80" shape="6607.41,2990.74 6606.89,2991.39 6606.55,2991.85 6606.16,2992.27 6605.50,2992.76"/>
    </edge>
    <edge id=":J10_1" function="internal">
        <lane id=":J10_1_0" index="0" disallow="pedestrian" speed="13.89" length="3.20" shape="6607.29,2995.42 6608.06,2994.87 6608.57,2994.46 6609.05,2994.02 6609.75,2993.38"/>
    </edge>
    <edge id=":J12_0" function="internal">
        <lane id=":J12_0_0" index="0" disallow="pedestrian tram rail_urban rail rail_electric rail_fast ship container cable_car subway aircraft wheelchair scooter drone" speed="27.78" length="0.10" shape="6619.13,2891.11 6619.13,2891.11"/>
    </edge>
    <edge id=":J12_1" function="internal">
        <lane id=":J12_1_0" index="0" disallow="pedestrian tram rail_urban rail rail_electric rail_fast ship container cable_car subway aircraft wheelchair scooter drone" speed="27.78" length="0.10" shape="6615.93,2891.23 6615.93,2891.23"/>
    </edge>
    <edge id=":J13_0" function="internal">
        <lane id=":J13_0_0" index="0" disallow="pedestrian" speed="13.89" length="0.10" shape="6275.23,4125.22 6275.23,4125.22"/>
    </edge>
    <edge id=":J13_1" function="internal">
        <lane id=":J13_1_0" index="0" disallow="pedestrian" speed="13.89" length="0.10" shape="6278.05,4126.74 6278.05,4126.74"/>
    </edge>
    <edge id=":J14_0" function="internal">
        <lane id=":J14_0_0" index="0" disallow="pedestrian" speed="13.89" length="3.00" shape="5948.90,2591.92 5948.63,2588.93"/>
    </edge>
    <edge id=":J3_0" function="internal">
        <lane id=":J3_0_0" index="0" disallow="pedestrian tram rail_urban rail rail_electric rail_fast ship container cable_car subway aircraft wheelchair scooter drone" speed="20.84" length="0.33" shape="6348.02,3715.29 6348.01,3715.20 6348.00,3715.13 6348.00,3715.06 6347.99,3714.97"/>
    </edge>
    <edge id=":J3_1" function="internal">
        <lane id=":J3_1_0" index="0" disallow="pedestrian tram rail_urban rail rail_electric rail_fast ship container cable_car subway aircraft wheelchair scooter drone" speed="20.84" length="0.62" shape="6344.78,3715.06 6344.84,3715.67"/>
    </edge>
    <edge id=":J5_0" function="internal">
        <lane id=":J5_0_0" index="0" disallow="pedestrian" speed="13.89" length="0.31" shape="6016.99,4228.05 6016.68,4228.02"/>
    </edge>
    <edge id=":J5_1" function="internal">
        <lane id=":J5_1_0" index="0" disallow="pedestrian" speed="13.89" length="0.28" shape="6016.40,4231.21 6016.68,4231.24"/>
    </edge>
    <edge id=":J6_0" function="internal">
        <lane id=":J6_0_0" index="0" disallow="pedestrian" speed="13.89" length="0.20" shape="5823.63,4210.87 5823.43,4210.85"/>
    </edge>
    <edge id=":J6_1" function="internal">
        <lane id=":J6_1_0" index="0" disallow="pedestrian" speed="13.89" length="0.30" shape="5823.04,4214.02 5823.34,4214.05"/>
    </edge>
    <edge id=":J7_0" function="internal">
        <lane id=":J7_0_0" index="0" disallow="pedestrian" speed="13.89" length="2.99" shape="5640.64,4188.79 5637.67,4188.42"/>
    </edge>
    <edge id=":J8_0" function="internal">
        <lane id=":J8_0_0" index="0" disallow="pedestrian tram rail_urban rail rail_electric rail_fast ship container cable_car subway aircraft wheelchair scooter drone" speed="22.22" length="0.20" shape="6957.22,3834.77 6957.08,3834.91"/>
    </edge>
    <edge id=":J8_1" function="internal">
        <lane id=":J8_1_0" index="0" disallow="pedestrian tram rail_urban rail rail_electric rail_fast ship container cable_car subway aircraft wheelchair scooter drone" speed="22.22" length="0.32" shape="6959.26,3837.25 6959.49,3837.02"/>
    </edge>
    <edge id=":J9_0" function="internal">
        <lane id=":J9_0_0" index="0" disallow="pedestrian tram rail_urban rail rail_electric rail_fast ship container cable_car subway aircraft wheelchair scooter drone" speed="22.22" length="0.27" shape="6822.27,3971.58 6822.08,3971.78"/>
    </edge>
    <edge id=":J9_1" function="internal">
        <lane id=":J9_1_0" index="0" disallow="pedestrian tram rail_urban rail rail_electric rail_fast ship container cable_car subway aircraft wheelchair scooter drone" speed="22.22" length="0.45" shape="6824.34,3974.04 6824.64,3973.72"/>
    </edge>
    <edge id=":cluster_1203887591_8634522170_0" function="internal">
        <lane id=":cluster_1203887591_8634522170_0_0" index="0" disallow="pedestrian" speed="8.08" length="10.07" shape="6212.44,4241.05 6210.73,4243.68 6208.88,4245.50 6206.90,4246.50 6204.78,4246.69"/>
    </edge>
    <edge id=":cluster_1203887591_8634522170_1" function="internal">
        <lane id=":cluster_1203887591_8634522170_1_0" index="0" disallow="pedestrian" speed="7.89" length="15.19" shape="6212.44,4241.05 6210.97,4245.04 6211.23,4248.38 6213.22,4251.08 6216.93,4253.13"/>
    </edge>
    <edge id=":cluster_1203887591_8634522170_2" function="internal">
        <lane id=":cluster_1203887591_8634522170_2_0" index="0" disallow="pedestrian" speed="6.37" length="9.50" shape="6218.06,4250.13 6215.74,4248.85 6214.50,4247.16 6214.33,4245.07 6215.25,4242.58"/>
    </edge>
    <edge id=":cluster_1203887591_8634522170_3" function="internal">
        <lane id=":cluster_1203887591_8634522170_3_0" index="0" disallow="pedestrian" speed="13.89" length="13.80" shape="6218.06,4250.13 6214.24,4248.66 6211.57,4247.76 6208.83,4247.17 6204.78,4246.69"/>
    </edge>
    <edge id=":cluster_1203887591_8634522170_4" function="internal">
        <lane id=":cluster_1203887591_8634522170_4_0" index="0" disallow="pedestrian" speed="13.89" length="12.96" shape="6204.46,4249.87 6208.27,4250.33 6210.84,4250.89 6213.34,4251.75 6216.93,4253.13"/>
    </edge>
    <edge id=":cluster_1203887591_8634522170_5" function="internal">
        <lane id=":cluster_1203887591_8634522170_5_0" index="0" disallow="pedestrian" speed="9.38" length="3.27" shape="6204.46,4249.87 6207.57,4249.66 6207.71,4249.59"/>
    </edge>
    <edge id=":cluster_1203887591_8634522170_6" function="internal">
        <lane id=":cluster_1203887591_8634522170_6_0" index="0" disallow="pedestrian" speed="9.38" length="10.56" shape="6207.71,4249.59 6210.40,4248.37 6212.96,4246.01 6215.25,4242.58"/>
    </edge>
    <edge id=":cluster_1203962191_2166962981_8634522162_942328421_0" function="internal">
        <lane id=":cluster_1203962191_2166962981_8634522162_942328421_0_0" index="0" disallow="pedestrian" speed="13.89" length="0.48" shape="6554.94,4208.49 6554.81,4208.55 6554.72,4208.59 6554.63,4208.63 6554.50,4208.67"/>
    </edge>
    <edge id=":cluster_1203962191_2166962981_8634522162_942328421_1" function="internal">
        <lane id=":cluster_1203962191_2166962981_8634522162_942328421_1_0" index="0" disallow="pedestrian" speed="13.89" length="0.90" shape="6555.53,4211.70 6555.78,4211.62 6555.96,4211.55 6556.12,4211.48 6556.36,4211.36"/>
    </edge>
    <edge id=":cluster_1203997794_8543606064_0" function="internal">
        <lane id=":cluster_1203997794_8543606064_0_0" index="0" disallow="pedestrian tram rail_urban rail rail_electric rail_fast ship container cable_car subway aircraft wheelchair scooter drone" speed="20.84" length="5.28" shape="6772.83,3362.55 6771.89,3361.30 6771.20,3360.46 6770.58,3359.59 6769.85,3358.21"/>
    </edge>
    <edge id=":cluster_1203997794_8543606064_1" function="internal">
        <lane id=":cluster_1203997794_8543606064_1_0" index="0" disallow="pedestrian tram rail_urban rail rail_electric rail_fast ship container cable_car subway aircraft wheelchair scooter drone" speed="3.65" length="1.44" shape="6772.83,3362.55 6771.49,3362.03"/>
    </edge>
    <edge id=":cluster_1203997794_8543606064_3" function="internal">