<?xml version="1.0" encoding="UTF-8"?>

<!-- generated on 2026-03-28 16:43:09 by Eclipse SUMO netedit Version 1.20.0
<configuration xmlns:xsi="http://www.w3.org/2001/XMLSchema-instance" xsi:noNamespaceSchemaLocation="http://sumo.dlr.de/xsd/neteditConfiguration.xsd">

    <input>
        <sumocfg-file value="/Users/kashiisamutakeshi/vehicle-assistant-system/evacsim/data/maps/pedestrian_test.sumocfg"/>
        <route-files value="/Users/kashiisamutakeshi/vehicle-assistant-system/evacsim/data/maps/pedestrian_test.rou.xml"/>
        <sumo-net-file value="/Users/kashiisamutakeshi/vehicle-assistant-system/evacsim/data/maps/pedestrian_test.net.xml"/>
    </input>

    <output>
        <output-file value="/Users/kashiisamutakeshi/vehicle-assistant-system/evacsim/data/maps/pedestrian_test.net.xml"/>
    </output>

    <processing>
        <offset.disable-normalization value="true"/>
    </processing>

    <junctions>
        <no-turnarounds value="true"/>
    </junctions>

    <netedit>
        <new-network value="false"/>
    </netedit>

</configuration>
-->

<net version="1.20" junctionCornerDetail="5" limitTurnSpeed="5.50" xmlns:xsi="http://www.w3.org/2001/XMLSchema-instance" xsi:noNamespaceSchemaLocation="http://sumo.dlr.de/xsd/net_file.xsd">

    <location netOffset="0.00,0.00" convBoundary="-100.00,0.00,300.00,0.00" origBoundary="10000000000.00,10000000000.00,-10000000000.00,-10000000000.00" projParameter="!"/>

    <edge id=":J1_0" function="internal">
        <lane id=":J1_0_0" index="0" speed="13.89" length="0.10" shape="100.00,-1.60 100.00,-1.60"/>
    </edge>

    <edge id="beg" from="J0" to="J1" priority="-1">
        <lane id="beg_0" index="0" speed="13.89" length="200.00" shape="-100.00,-1.60 100.00,-1.60"/>
    </edge>
    <edge id="end" from="J1" to="J2" priority="-1">
        <lane id="end_0" index="0" speed="13.89" length="200.00" shape="100.00,-1.60 300.00,-1.60"/>
    </edge>

    <junction id="J0" type="dead_end" x="-100.00" y="0.00" incLanes="" intLanes="" shape="-100.00,0.00 -100.00,-3.20"/>
    <junction id="J1" type="priority" x="100.00" y="0.00" incLanes="beg_0" intLanes=":J1_0_0" shape="100.00,0.00 100.00,-3.20 100.00,0.00">
        <request index="0" response="0" foes="0" cont="0"/>
    </junction>
    <junction id="J2" type="dead_end" x="300.00" y="0.00" incLanes="end_0" intLanes="" shape="300.00,-3.20 300.00,0.00"/>

    <connection from="beg" to="end" fromLane="0" toLane="0" via=":J1_0_0" dir="s" state="M"/>

    <connection from=":J1_0" to="end" fromLane="0" toLane="0" dir="s" state="M"/>

</net>
