<?xml version="1.0" encoding="UTF-8"?>

<!-- generated on 2026-03-28 16:43:09 by Eclipse SUMO sumo Version 1.20.0
-->

<configuration xmlns:xsi="http://www.w3.org/2001/XMLSchema-instance" xsi:noNamespaceSchemaLocation="http://sumo.dlr.de/xsd/sumoConfiguration.xsd">

    <input>
        <net-file value="pedestrian_test.net.xml"/>
        <route-files value="pedestrian_test.rou.xml,pedestrian.rou.xml"/>
    </input>

</configuration>
