<?xml version="1.0" encoding="UTF-8"?>

<!-- generated on 2026-03-28 16:43:09 by Eclipse SUMO netedit Version 1.20.0
-->

<routes xmlns:xsi="http://www.w3.org/2001/XMLSchema-instance" xsi:noNamespaceSchemaLocation="http://sumo.dlr.de/xsd/routes_file.xsd">
    <!-- Routes -->
    <route id="r_0" edges="beg"/>
</routes>
