<?xml version="1.0" encoding="UTF-8"?>

<!-- generated on 2026-07-05 20:57:40 by Eclipse SUMO netedit Version 1.20.0
<configuration xmlns:xsi="http://www.w3.org/2001/XMLSchema-instance" xsi:noNamespaceSchemaLocation="http://sumo.dlr.de/xsd/neteditConfiguration.xsd">

    <input>
        <sumocfg-file value="/Users/kashiisamutakeshi/vehicle-assistant-system/scenarios/JIP/1-1-2/data/ishinomaki_one_two_one.sumocfg"/>
        <sumo-net-file value="/Users/kashiisamutakeshi/vehicle-assistant-system/scenarios/JIP/1-1-2/data/ishinomaki_one_two_one.net.xml"/>
    </input>

    <output>
        <output-file value="/Users/kashiisamutakeshi/vehicle-assistant-system/scenarios/JIP/1-1-2/data/ishinomaki_one_two_one.net.xml"/>
    </output>

    <processing>
        <geometry.min-radius.fix.railways value="false"/>
        <geometry.max-grade.fix value="false"/>
        <offset.disable-normalization value="true"/>
        <lefthand value="1"/>
    </processing>

    <junctions>
        <no-turnarounds value="true"/>
        <junctions.corner-detail value="5"/>
        <junctions.limit-turn-speed value="5.50"/>
        <rectangular-lane-cut value="0"/>
    </junctions>

    <pedestrian>
        <walkingareas value="0"/>
    </pedestrian>

</configuration>
-->

<net version="1.20" junctionCornerDetail="5" lefthand="true" limitTurnSpeed="5.50" xmlns:xsi="http://www.w3.org/2001/XMLSchema-instance" xsi:noNamespaceSchemaLocation="http://sumo.dlr.de/xsd/net_file.xsd">

    <location netOffset="-520703.59,-4250601.64" convBoundary="4000.20,2656.40,11028.38,6227.14" origBoundary="141.237328,38.305646,141.419841,38.482093" projParameter="+proj=utm +zone=54 +ellps=WGS84 +datum=WGS84 +units=m +no_defs"/>

    <type id="highway.tertiary" priority="10" numLanes="1" speed="22.22" disallow="tram rail_urban rail rail_electric rail_fast ship container cable_car subway aircraft wheelchair scooter drone" oneway="0"/>
    <type id="highway.trunk" priority="13" numLanes="2" speed="27.78" disallow="pedestrian bicycle tram rail_urban rail rail_electric rail_fast ship container cable_car subway aircraft wheelchair scooter drone" oneway="0"/>
    <type id="highway.unclassified" priority="4" numLanes="1" speed="13.89" disallow="tram rail_urban rail rail_electric rail_fast ship container cable_car subway aircraft wheelchair scooter drone" oneway="0"/>

    <edge id=":1203974039_0" function="internal">
        <lane id=":1203974039_0_0" index="0" speed="13.89" length="3.00" shape="4243.65,2936.61 4246.64,2936.49"/>
    </edge>
    <edge id=":1203974086_0" function="internal">
        <lane id=":1203974086_0_0" index="0" speed="13.89" length="7.99" shape="4390.09,2927.92 4382.11,2928.23"/>
    </edge>
    <edge id=":1203974086_1" function="internal">
        <lane id=":1203974086_1_0" index="0" speed="13.89" length="8.41" shape="4382.23,2931.43 4384.71,2931.84 4386.29,2932.88 4387.87,2933.91 4390.35,2934.31"/>
        <lane id=":1203974086_1_1" index="1" speed="13.89" length="8.41" shape="4382.23,2931.43 4390.22,2931.11"/>
    </edge>
    <edge id=":1203996219_0" function="internal">
        <lane id=":1203996219_0_0" index="0" disallow="pedestrian bicycle tram rail_urban rail rail_electric rail_fast ship container cable_car subway aircraft wheelchair scooter drone" speed="6.07" length="8.21" shape="6289.78,3201.29 6291.53,3199.82 6292.33,3198.17 6292.18,3196.35 6291.10,3194.35"/>
    </edge>
    <edge id=":1203996219_1" function="internal">
        <lane id=":1203996219_1_0" index="0" disallow="pedestrian bicycle tram rail_urban rail rail_electric rail_fast ship container cable_car subway aircraft wheelchair scooter drone" speed="3.65" length="1.44" shape="6289.78,3201.29 6290.38,3199.97"/>
    </edge>
    <edge id=":1203996219_3" function="internal">
        <lane id=":1203996219_3_0" index="0" disallow="pedestrian bicycle tram rail_urban rail rail_electric rail_fast ship container cable_car subway aircraft wheelchair scooter drone" speed="3.65" length="3.23" shape="6290.38,3199.97 6290.30,3199.08 6289.54,3198.61 6288.09,3198.57"/>
    </edge>
    <edge id=":1203996219_2" function="internal">
        <lane id=":1203996219_2_0" index="0" disallow="pedestrian bicycle tram rail_urban rail rail_electric rail_fast ship container cable_car subway aircraft wheelchair scooter drone" speed="3.90" length="2.74" shape="6288.53,3196.26 6288.89,3196.92 6288.94,3197.53 6288.67,3198.08 6288.09,3198.57"/>
    </edge>
    <edge id=":1204037875_0" function="internal">
        <lane id=":1204037875_0_0" index="0" disallow="tram rail_urban rail rail_electric rail_fast ship container cable_car subway aircraft wheelchair scooter drone" speed="22.22" length="0.30" shape="5377.09,3034.98 5376.80,3034.97"/>
    </edge>
    <edge id=":1204037875_1" function="internal">
        <lane id=":1204037875_1_0" index="0" disallow="tram rail_urban rail rail_electric rail_fast ship container cable_car subway aircraft wheelchair scooter drone" speed="3.65" length="2.34" shape="5377.09,3034.98 5375.84,3035.70 5375.39,3036.47"/>
    </edge>
    <edge id=":1204037875_4" function="internal">
        <lane id=":1204037875_4_0" index="0" disallow="tram rail_urban rail rail_electric rail_fast ship container cable_car subway aircraft wheelchair scooter drone" speed="3.65" length="2.34" shape="5375.39,3036.47 5375.73,3037.29 5376.87,3038.17"/>
    </edge>
    <edge id=":1204037875_2" function="internal">
        <lane id=":1204037875_2_0" index="0" disallow="tram rail_urban rail rail_electric rail_fast ship container cable_car subway aircraft wheelchair scooter drone" speed="22.22" length="0.19" shape="5376.68,3038.16 5376.87,3038.17"/>
    </edge>
    <edge id=":1204037875_3" function="internal">
        <lane id=":1204037875_3_0" index="0" disallow="tram rail_urban rail rail_electric rail_fast ship container cable_car subway aircraft wheelchair scooter drone" speed="3.65" length="2.34" shape="5376.68,3038.16 5377.91,3037.41 5378.34,3036.62"/>
    </edge>
    <edge id=":1204037875_5" function="internal">
        <lane id=":1204037875_5_0" index="0" disallow="tram rail_urban rail rail_electric rail_fast ship container cable_car subway aircraft wheelchair scooter drone" speed="3.65" length="2.34" shape="5378.34,3036.62 5377.97,3035.81 5376.80,3034.97"/>
    </edge>
    <edge id=":1795394528_0" function="internal">
        <lane id=":1795394528_0_0" index="0" speed="13.89" length="0.31" shape="6226.25,3107.13 6226.07,3106.89"/>
    </edge>
    <edge id=":1795394528_1" function="internal">
        <lane id=":1795394528_1_0" index="0" speed="13.89" length="0.23" shape="6223.55,3108.86 6223.69,3109.04"/>
    </edge>
    <edge id=":2163628485_0" function="internal">
        <lane id=":2163628485_0_0" index="0" disallow="tram rail_urban rail rail_electric rail_fast ship container cable_car subway aircraft wheelchair scooter drone" speed="6.09" length="7.20" shape="5777.37,3250.74 5776.58,3248.96 5775.40,3247.81 5773.83,3247.27 5771.89,3247.35"/>
    </edge>
    <edge id=":2163628485_1" function="internal">
        <lane id=":2163628485_1_0" index="0" disallow="tram rail_urban rail rail_electric rail_fast ship container cable_car subway aircraft wheelchair scooter drone" speed="3.65" length="1.44" shape="5777.37,3250.74 5776.27,3249.81"/>
    </edge>
    <edge id=":2163628485_4" function="internal">
        <lane id=":2163628485_4_0" index="0" disallow="tram rail_urban rail rail_electric rail_fast ship container cable_car subway aircraft wheelchair scooter drone" speed="3.65" length="3.23" shape="5776.27,3249.81 5775.39,3249.65 5774.73,3250.26 5774.30,3251.63"/>
    </edge>
    <edge id=":2163628485_2" function="internal">
        <lane id=":2163628485_2_0" index="0" disallow="tram rail_urban rail rail_electric rail_fast ship container cable_car subway aircraft wheelchair scooter drone" speed="3.91" length="2.40" shape="5772.47,3250.50 5773.12,3250.47 5773.64,3250.65 5774.03,3251.04 5774.30,3251.63"/>
    </edge>
    <edge id=":2163628485_3" function="internal">
        <lane id=":2163628485_3_0" index="0" disallow="tram rail_urban rail rail_electric rail_fast ship container cable_car subway aircraft wheelchair scooter drone" speed="3.65" length="1.31" shape="5772.47,3250.50 5773.41,3249.59"/>
    </edge>
    <edge id=":2163628485_5" function="internal">
        <lane id=":2163628485_5_0" index="0" disallow="tram rail_urban rail rail_electric rail_fast ship container cable_car subway aircraft wheelchair scooter drone" speed="3.65" length="3.37" shape="5773.41,3249.59 5773.50,3249.50 5773.75,3248.64 5773.21,3247.92 5771.89,3247.35"/>
    </edge>
    <edge id=":2163628490_0" function="internal">
        <lane id=":2163628490_0_0" index="0" disallow="tram rail_urban rail rail_electric rail_fast ship container cable_car subway aircraft wheelchair scooter drone" speed="6.18" length="9.05" shape="5810.62,3336.45 5808.27,3337.41 5806.29,3337.32 5804.67,3336.16 5803.43,3333.94"/>
    </edge>
    <edge id=":2163628490_1" function="internal">
        <lane id=":2163628490_1_0" index="0" speed="13.89" length="14.55" shape="5810.62,3336.45 5797.89,3343.50"/>
    </edge>
    <edge id=":2163628490_2" function="internal">
        <lane id=":2163628490_2_0" index="0" speed="13.89" length="14.72" shape="5799.36,3346.35 5812.24,3339.21"/>
    </edge>
    <edge id=":2163628490_3" function="internal">
        <lane id=":2163628490_3_0" index="0" disallow="tram rail_urban rail rail_electric rail_fast ship container cable_car subway aircraft wheelchair scooter drone" speed="8.43" length="14.54" shape="5799.36,3346.35 5802.38,3344.14 5804.07,3341.34 5804.42,3337.94 5803.43,3333.94"/>
    </edge>
    <edge id=":2163628490_4" function="internal">
        <lane id=":2163628490_4_0" index="0" disallow="tram rail_urban rail rail_electric rail_fast ship container cable_car subway aircraft wheelchair scooter drone" speed="7.02" length="9.78" shape="5800.44,3335.09 5801.14,3337.84 5800.95,3340.15 5799.86,3342.04 5797.89,3343.50"/>
    </edge>
    <edge id=":2163628490_5" function="internal">
        <lane id=":2163628490_5_0" index="0" disallow="tram rail_urban rail rail_electric rail_fast ship container cable_car subway aircraft wheelchair scooter drone" speed="7.74" length="14.85" shape="5800.44,3335.09 5802.48,3338.73 5805.13,3340.63 5808.38,3340.79 5812.24,3339.21"/>
    </edge>
    <edge id=":2163628490_6" function="internal">
        <lane id=":2163628490_6_0" index="0" disallow="tram rail_urban rail rail_electric rail_fast ship container cable_car subway aircraft wheelchair scooter drone" speed="3.65" length="4.67" shape="5800.44,3335.09 5801.62,3335.92 5802.51,3336.01 5803.11,3335.35 5803.43,3333.94"/>
    </edge>
    <edge id=":2163643370_0" function="internal">
        <lane id=":2163643370_0_0" index="0" disallow="pedestrian bicycle tram rail_urban rail rail_electric rail_fast ship container cable_car subway aircraft wheelchair scooter drone" speed="27.78" length="0.25" shape="6158.60,3247.02 6158.36,3247.05"/>
    </edge>
    <edge id=":2163643370_1" function="internal">
        <lane id=":2163643370_1_0" index="0" disallow="pedestrian bicycle tram rail_urban rail rail_electric rail_fast ship container cable_car subway aircraft wheelchair scooter drone" speed="3.65" length="2.34" shape="6158.60,3247.02 6157.50,3247.96 6157.20,3248.80"/>
    </edge>
    <edge id=":2163643370_4" function="internal">
        <lane id=":2163643370_4_0" index="0" disallow="pedestrian bicycle tram rail_urban rail rail_electric rail_fast ship container cable_car subway aircraft wheelchair scooter drone" speed="3.65" length="2.34" shape="6157.20,3248.80 6157.69,3249.55 6158.98,3250.20"/>
    </edge>
    <edge id=":2163643370_2" function="internal">
        <lane id=":2163643370_2_0" index="0" disallow="pedestrian bicycle tram rail_urban rail rail_electric rail_fast ship container cable_car subway aircraft wheelchair scooter drone" speed="27.78" length="0.31" shape="6158.67,3250.24 6158.98,3250.20"/>
    </edge>
    <edge id=":2163643370_3" function="internal">
        <lane id=":2163643370_3_0" index="0" disallow="pedestrian bicycle tram rail_urban rail rail_electric rail_fast ship container cable_car subway aircraft wheelchair scooter drone" speed="3.65" length="2.34" shape="6158.67,3250.24 6159.78,3249.32 6160.10,3248.49"/>
    </edge>
    <edge id=":2163643370_5" function="internal">
        <lane id=":2163643370_5_0" index="0" disallow="pedestrian bicycle tram rail_urban rail rail_electric rail_fast ship container cable_car subway aircraft wheelchair scooter drone" speed="3.65" length="2.34" shape="6160.10,3248.49 6159.63,3247.73 6158.36,3247.05"/>
    </edge>
    <edge id=":2163643376_0" function="internal">
        <lane id=":2163643376_0_0" index="0" disallow="pedestrian bicycle tram rail_urban rail rail_electric rail_fast ship container cable_car subway aircraft wheelchair scooter drone" speed="20.84" length="1.13" shape="5911.48,3277.33 5911.16,3277.43 5910.94,3277.51 5910.73,3277.61 5910.44,3277.78"/>
    </edge>
    <edge id=":2163643376_1" function="internal">
        <lane id=":2163643376_1_0" index="0" disallow="pedestrian bicycle tram rail_urban rail rail_electric rail_fast ship container cable_car subway aircraft wheelchair scooter drone" speed="3.65" length="1.44" shape="5911.48,3277.33 5910.56,3278.44"/>
    </edge>
    <edge id=":2163643376_3" function="internal">
        <lane id=":2163643376_3_0" index="0" disallow="pedestrian bicycle tram rail_urban rail rail_electric rail_fast ship container cable_car subway aircraft wheelchair scooter drone" speed="3.65" length="3.23" shape="5910.56,3278.44 5910.41,3279.33 5911.03,3279.97 5912.41,3280.39"/>
    </edge>
    <edge id=":2163643376_2" function="internal">
        <lane id=":2163643376_2_0" index="0" disallow="pedestrian bicycle tram rail_urban rail rail_electric rail_fast ship container cable_car subway aircraft wheelchair scooter drone" speed="20.84" length="0.38" shape="5912.06,3280.54 5912.16,3280.49 5912.23,3280.45 5912.30,3280.42 5912.41,3280.39"/>
    </edge>
    <edge id=":2166920658_0" function="internal">
        <lane id=":2166920658_0_0" index="0" disallow="pedestrian bicycle tram rail_urban rail rail_electric rail_fast ship container cable_car subway aircraft wheelchair scooter drone" speed="20.84" length="0.10" shape="5240.92,3562.93 5240.85,3562.93"/>
    </edge>
    <edge id=":2166920658_1" function="internal">
        <lane id=":2166920658_1_0" index="0" disallow="pedestrian bicycle tram rail_urban rail rail_electric rail_fast ship container cable_car subway aircraft wheelchair scooter drone" speed="20.84" length="0.10" shape="5240.93,3566.13 5240.86,3566.13"/>
    </edge>
    <edge id=":2166920658_2" function="internal">
        <lane id=":2166920658_2_0" index="0" disallow="pedestrian bicycle tram rail_urban rail rail_electric rail_fast ship container cable_car subway aircraft wheelchair scooter drone" speed="3.65" length="2.34" shape="5240.93,3566.13 5242.11,3565.30 5242.49,3564.49"/>
    </edge>
    <edge id=":2166920658_3" function="internal">
        <lane id=":2166920658_3_0" index="0" disallow="pedestrian bicycle tram rail_urban rail rail_electric rail_fast ship container cable_car subway aircraft wheelchair scooter drone" speed="3.65" length="2.34" shape="5242.49,3564.49 5242.07,3563.70 5240.85,3562.93"/>
    </edge>
    <edge id=":2166920661_0" function="internal">
        <lane id=":2166920661_0_0" index="0" disallow="pedestrian bicycle tram rail_urban rail rail_electric rail_fast ship container cable_car subway aircraft wheelchair scooter drone" speed="27.78" length="0.10" shape="5134.32,3556.50 5134.40,3556.53"/>
    </edge>
    <edge id=":2166920661_1" function="internal">
        <lane id=":2166920661_1_0" index="0" disallow="pedestrian bicycle tram rail_urban rail rail_electric rail_fast ship container cable_car subway aircraft wheelchair scooter drone" speed="3.65" length="2.34" shape="5134.32,3556.50 5132.96,3556.97 5132.36,3557.64"/>
    </edge>
    <edge id=":2166920661_4" function="internal">
        <lane id=":2166920661_4_0" index="0" disallow="pedestrian bicycle tram rail_urban rail rail_electric rail_fast ship container cable_car subway aircraft wheelchair scooter drone" speed="3.65" length="2.34" shape="5132.36,3557.64 5132.54,3558.51 5133.50,3559.60"/>
    </edge>
    <edge id=":2166920661_2" function="internal">
        <lane id=":2166920661_2_0" index="0" disallow="pedestrian bicycle tram rail_urban rail rail_electric rail_fast ship container cable_car subway aircraft wheelchair scooter drone" speed="27.78" length="0.10" shape="5133.42,3559.57 5133.50,3559.60"/>
    </edge>
    <edge id=":2166920661_3" function="internal">
        <lane id=":2166920661_3_0" index="0" disallow="pedestrian bicycle tram rail_urban rail rail_electric rail_fast ship container cable_car subway aircraft wheelchair scooter drone" speed="3.65" length="2.34" shape="5133.42,3559.57 5134.81,3559.18 5135.43,3558.54"/>
    </edge>
    <edge id=":2166920661_5" function="internal">
        <lane id=":2166920661_5_0" index="0" disallow="pedestrian bicycle tram rail_urban rail rail_electric rail_fast ship container cable_car subway aircraft wheelchair scooter drone" speed="3.65" length="2.34" shape="5135.43,3558.54 5135.30,3557.66 5134.40,3556.53"/>
    </edge>
    <edge id=":2166926148_0" function="internal">
        <lane id=":2166926148_0_0" index="0" disallow="tram rail_urban rail rail_electric rail_fast ship container cable_car subway aircraft wheelchair scooter drone" speed="18.05" length="0.31" shape="4727.81,2913.96 4727.50,2913.97"/>
    </edge>
    <edge id=":2166926148_1" function="internal">
        <lane id=":2166926148_1_0" index="0" disallow="tram rail_urban rail rail_electric rail_fast ship container cable_car subway aircraft wheelchair scooter drone" speed="18.05" length="0.29" shape="4727.66,2917.17 4727.95,2917.15"/>
    </edge>
    <edge id=":2166926148_2" function="internal">
        <lane id=":2166926148_2_0" index="0" disallow="tram rail_urban rail rail_electric rail_fast ship container cable_car subway aircraft wheelchair scooter drone" speed="3.65" length="2.34" shape="4727.66,2917.17 4728.82,2916.31 4729.18,2915.49"/>
    </edge>
    <edge id=":2166926148_3" function="internal">
        <lane id=":2166926148_3_0" index="0" disallow="tram rail_urban rail rail_electric rail_fast ship container cable_car subway aircraft wheelchair scooter drone" speed="3.65" length="2.34" shape="4729.18,2915.49 4728.74,2914.71 4727.50,2913.97"/>
    </edge>
    <edge id=":2166926152_0" function="internal">
        <lane id=":2166926152_0_0" index="0" speed="13.89" length="0.80" shape="4899.82,2918.15 4899.60,2918.08 4899.44,2918.03 4899.28,2918.00 4899.05,2917.96"/>
    </edge>
    <edge id=":2166926152_1" function="internal">
        <lane id=":2166926152_1_0" index="0" speed="13.89" length="0.27" shape="4898.52,2921.11 4898.60,2921.13 4898.65,2921.14 4898.71,2921.15 4898.78,2921.18"/>
    </edge>
    <edge id=":2166926175_0" function="internal">
        <lane id=":2166926175_0_0" index="0" speed="13.89" length="0.16" shape="5086.72,2982.45 5086.68,2982.44 5086.65,2982.43 5086.61,2982.42 5086.57,2982.41"/>
    </edge>
    <edge id=":2166926175_1" function="internal">
        <lane id=":2166926175_1_0" index="0" speed="13.89" length="0.48" shape="5085.53,2985.43 5085.66,2985.48 5085.76,2985.51 5085.85,2985.53 5085.99,2985.56"/>
    </edge>
    <edge id=":2177225745_0" function="internal">
        <lane id=":2177225745_0_0" index="0" speed="7.70" length="2.46" shape="6100.04,2941.82 6099.59,2941.24 6099.24,2940.89 6098.81,2940.62 6098.15,2940.31"/>
    </edge>
    <edge id=":2177225745_1" function="internal">
        <lane id=":2177225745_1_0" index="0" speed="13.89" length="0.82" shape="6096.85,2943.23 6097.07,2943.34 6097.21,2943.42 6097.33,2943.54 6097.48,2943.73"/>
    </edge>
    <edge id=":2177225764_0" function="internal">
        <lane id=":2177225764_0_0" index="0" disallow="tram rail_urban rail rail_electric rail_fast ship container cable_car subway aircraft wheelchair scooter drone" speed="18.05" length="0.10" shape="5250.24,3021.04 5250.33,3021.06"/>
    </edge>
    <edge id=":2177225764_1" function="internal">
        <lane id=":2177225764_1_0" index="0" disallow="tram rail_urban rail rail_electric rail_fast ship container cable_car subway aircraft wheelchair scooter drone" speed="3.65" length="2.34" shape="5250.24,3021.04 5248.92,3021.62 5248.38,3022.34"/>
    </edge>
    <edge id=":2177225764_3" function="internal">
        <lane id=":2177225764_3_0" index="0" disallow="tram rail_urban rail rail_electric rail_fast ship container cable_car subway aircraft wheelchair scooter drone" speed="3.65" length="2.34" shape="5248.38,3022.34 5248.64,3023.20 5249.68,3024.20"/>
    </edge>
    <edge id=":2177225764_2" function="internal">
        <lane id=":2177225764_2_0" index="0" disallow="tram rail_urban rail rail_electric rail_fast ship container cable_car subway aircraft wheelchair scooter drone" speed="18.05" length="0.10" shape="5249.59,3024.18 5249.68,3024.20"/>
    </edge>
    <edge id=":2177225809_0" function="internal">
        <lane id=":2177225809_0_0" index="0" disallow="pedestrian bicycle tram rail_urban rail rail_electric rail_fast ship container cable_car subway aircraft wheelchair scooter drone" speed="27.78" length="0.26" shape="6230.62,3233.77 6230.55,3233.80 6230.50,3233.82 6230.45,3233.84 6230.38,3233.86"/>
    </edge>
    <edge id=":2177225809_1" function="internal">
        <lane id=":2177225809_1_0" index="0" disallow="pedestrian bicycle tram rail_urban rail rail_electric rail_fast ship container cable_car subway aircraft wheelchair scooter drone" speed="3.65" length="2.34" shape="6230.62,3233.77 6229.91,3235.02 6229.91,3235.92"/>
    </edge>
    <edge id=":2177225809_4" function="internal">
        <lane id=":2177225809_4_0" index="0" disallow="pedestrian bicycle tram rail_urban rail rail_electric rail_fast ship container cable_car subway aircraft wheelchair scooter drone" speed="3.65" length="2.34" shape="6229.91,3235.92 6230.63,3236.45 6232.06,3236.62"/>
    </edge>
    <edge id=":2177225809_2" function="internal">
        <lane id=":2177225809_2_0" index="0" disallow="pedestrian bicycle tram rail_urban rail rail_electric rail_fast ship container cable_car subway aircraft wheelchair scooter drone" speed="27.78" length="0.77" shape="6231.35,3236.91 6231.57,3236.84 6231.71,3236.79 6231.86,3236.72 6232.06,3236.62"/>
    </edge>
    <edge id=":2177225809_3" function="internal">
        <lane id=":2177225809_3_0" index="0" disallow="pedestrian bicycle tram rail_urban rail rail_electric rail_fast ship container cable_car subway aircraft wheelchair scooter drone" speed="3.65" length="2.34" shape="6231.35,3236.91 6232.25,3235.79 6232.39,3234.90"/>
    </edge>
    <edge id=":2177225809_5" function="internal">
        <lane id=":2177225809_5_0" index="0" disallow="pedestrian bicycle tram rail_urban rail rail_electric rail_fast ship container cable_car subway aircraft wheelchair scooter drone" speed="3.65" length="2.34" shape="6232.39,3234.90 6231.77,3234.26 6230.38,3233.86"/>
    </edge>
    <edge id=":2177225844_0" function="internal">
        <lane id=":2177225844_0_0" index="0" disallow="pedestrian bicycle tram rail_urban rail rail_electric rail_fast ship container cable_car subway aircraft wheelchair scooter drone" speed="20.84" length="0.27" shape="5635.45,3427.48 5635.20,3427.61"/>
    </edge>
    <edge id=":2177225844_1" function="internal">
        <lane id=":2177225844_1_0" index="0" disallow="pedestrian bicycle tram rail_urban rail rail_electric rail_fast ship container cable_car subway aircraft wheelchair scooter drone" speed="20.84" length="0.31" shape="5636.64,3430.47 5636.91,3430.32"/>
    </edge>
    <edge id=":2177225844_2" function="internal">
        <lane id=":2177225844_2_0" index="0" disallow="pedestrian bicycle tram rail_urban rail rail_electric rail_fast ship container cable_car subway aircraft wheelchair scooter drone" speed="3.65" length="2.34" shape="5636.64,3430.47 5637.35,3429.21 5637.35,3428.32"/>
    </edge>
    <edge id=":2177225844_3" function="internal">
        <lane id=":2177225844_3_0" index="0" disallow="pedestrian bicycle tram rail_urban rail rail_electric rail_fast ship container cable_car subway aircraft wheelchair scooter drone" speed="3.65" length="2.34" shape="5637.35,3428.32 5636.63,3427.78 5635.20,3427.61"/>
    </edge>
    <edge id=":2187670674_0" function="internal">
        <lane id=":2187670674_0_0" index="0" speed="13.89" length="0.24" shape="6170.55,3035.93 6170.40,3035.74"/>
    </edge>
    <edge id=":2187670674_1" function="internal">
        <lane id=":2187670674_1_0" index="0" speed="13.89" length="0.31" shape="6167.84,3037.66 6168.03,3037.91"/>
    </edge>
    <edge id=":2189184400_0" function="internal">
        <lane id=":2189184400_0_0" index="0" disallow="pedestrian bicycle tram rail_urban rail rail_electric rail_fast ship container cable_car subway aircraft wheelchair scooter drone" speed="20.84" length="0.18" shape="5059.49,3507.82 5059.45,3507.78 5059.42,3507.76 5059.40,3507.73 5059.36,3507.69"/>
    </edge>
    <edge id=":2189184400_1" function="internal">
        <lane id=":2189184400_1_0" index="0" disallow="pedestrian bicycle tram rail_urban rail rail_electric rail_fast ship container cable_car subway aircraft wheelchair scooter drone" speed="3.65" length="2.34" shape="5059.49,3507.82 5058.06,3507.59 5057.23,3507.90"/>
    </edge>
    <edge id=":2189184400_3" function="internal">
        <lane id=":2189184400_3_0" index="0" disallow="pedestrian bicycle tram rail_urban rail rail_electric rail_fast ship container cable_car subway aircraft wheelchair scooter drone" speed="3.65" length="2.34" shape="5057.23,3507.90 5056.98,3508.76 5057.31,3510.17"/>
    </edge>
    <edge id=":2189184400_2" function="internal">
        <lane id=":2189184400_2_0" index="0" disallow="pedestrian bicycle tram rail_urban rail rail_electric rail_fast ship container cable_car subway aircraft wheelchair scooter drone" speed="20.84" length="0.54" shape="5056.94,3509.78 5057.05,3509.90 5057.12,3509.98 5057.20,3510.06 5057.31,3510.17"/>
    </edge>
    <edge id=":2196799986_0" function="internal">
        <lane id=":2196799986_0_0" index="0" speed="13.89" length="7.67" shape="4650.48,3097.07 4644.52,3092.25"/>
    </edge>
    <edge id=":2196799986_1" function="internal">
        <lane id=":2196799986_1_0" index="0" speed="13.89" length="8.80" shape="4640.31,3097.14 4642.50,3098.33 4644.38,3098.44 4646.28,3098.53 4648.55,3099.62"/>
    </edge>
    <edge id=":2196800013_0" function="internal">
        <lane id=":2196800013_0_0" index="0" speed="13.89" length="0.10" shape="4767.96,3186.08 4767.96,3186.08"/>
    </edge>
    <edge id=":2196800013_1" function="internal">
        <lane id=":2196800013_1_0" index="0" speed="13.89" length="0.10" shape="4766.02,3188.64 4766.02,3188.64"/>
    </edge>
    <edge id=":2223514512_0" function="internal">
        <lane id=":2223514512_0_0" index="0" disallow="tram rail_urban rail rail_electric rail_fast ship container cable_car subway aircraft wheelchair scooter drone" speed="6.51" length="9.03" shape="5508.42,3053.53 5508.00,3055.96 5506.89,3057.68 5505.11,3058.67 5502.65,3058.94"/>
    </edge>
    <edge id=":2223514512_1" function="internal">
        <lane id=":2223514512_1_0" index="0" disallow="tram rail_urban rail rail_electric rail_fast ship container cable_car subway aircraft wheelchair scooter drone" speed="13.89" length="14.01" shape="5508.42,3053.53 5508.39,3057.12 5508.56,3060.53 5508.97,3063.91 5509.64,3067.44"/>
    </edge>
    <edge id=":2223514512_2" function="internal">
        <lane id=":2223514512_2_0" index="0" disallow="tram rail_urban rail rail_electric rail_fast ship container cable_car subway aircraft wheelchair scooter drone" speed="13.89" length="13.21" shape="5512.76,3066.75 5512.10,3063.34 5511.72,3060.23 5511.58,3057.10 5511.62,3053.63"/>
    </edge>
    <edge id=":2223514512_3" function="internal">
        <lane id=":2223514512_3_0" index="0" disallow="tram rail_urban rail rail_electric rail_fast ship container cable_car subway aircraft wheelchair scooter drone" speed="8.75" length="3.55" shape="5512.76,3066.75 5511.50,3063.43"/>
    </edge>
    <edge id=":2223514512_4" function="internal">
        <lane id=":2223514512_4_0" index="0" disallow="tram rail_urban rail rail_electric rail_fast ship container cable_car subway aircraft wheelchair scooter drone" speed="3.65" length="1.44" shape="5512.76,3066.75 5511.72,3065.75"/>
    </edge>
    <edge id=":2223514512_8" function="internal">
        <lane id=":2223514512_8_0" index="0" disallow="tram rail_urban rail rail_electric rail_fast ship container cable_car subway aircraft wheelchair scooter drone" speed="8.75" length="10.35" shape="5511.50,3063.43 5509.39,3061.03 5506.44,3059.53 5502.65,3058.94"/>
    </edge>
    <edge id=":2223514512_9" function="internal">
        <lane id=":2223514512_9_0" index="0" disallow="tram rail_urban rail rail_electric rail_fast ship container cable_car subway aircraft wheelchair scooter drone" speed="3.65" length="3.23" shape="5511.72,3065.75 5510.85,3065.53 5510.16,3066.10 5509.64,3067.44"/>
    </edge>
    <edge id=":2223514512_5" function="internal">
        <lane id=":2223514512_5_0" index="0" disallow="tram rail_urban rail rail_electric rail_fast ship container cable_car subway aircraft wheelchair scooter drone" speed="7.38" length="9.63" shape="5502.55,3062.14 5505.22,3062.54 5507.30,3063.56 5508.77,3065.19 5509.64,3067.44"/>
    </edge>
    <edge id=":2223514512_6" function="internal">
        <lane id=":2223514512_6_0" index="0" disallow="tram rail_urban rail rail_electric rail_fast ship container cable_car subway aircraft wheelchair scooter drone" speed="8.00" length="14.19" shape="5502.55,3062.14 5506.41,3061.71 5509.21,3060.15 5510.95,3057.46 5511.62,3053.63"/>