<?xml version="1.0" encoding="UTF-8"?>

<!-- generated on 2025-01-06 21:21:31 by Eclipse SUMO netedit Version v1_21_0+0879-92336f44d2b
-->

<additional xmlns:xsi="http://www.w3.org/2001/XMLSchema-instance" xsi:noNamespaceSchemaLocation="http://sumo.dlr.de/xsd/additional_file.xsd">
<parkingArea id="ShelterA_1" lane="E16_0" startPos="10" endPos="100" roadsideCapacity="400" width="3" length="6" angle ="120">
</parkingArea>
<parkingArea id="ShelterA_2" lane="E13_0" startPos="10" endPos="100" roadsideCapacity="400" width="3" length="6" angle ="120">
</parkingArea>
</additional>