<configuration>
    <input>
        <net-file value="ishinomaki_light.net.xml"/>
        <route-files value="routes.rou.xml"/>
        <gui-settings-file value="custome_color.xml"/>
    </input>

    <time>
        <begin value="0"/>
        <end value="3600"/>
    </time>
</configuration>