<?xml version="1.0" encoding="UTF-8"?>

<!-- generated on 2026-03-29 17:34:21 by Eclipse SUMO netedit Version 1.20.0
<configuration xmlns:xsi="http://www.w3.org/2001/XMLSchema-instance" xsi:noNamespaceSchemaLocation="http://sumo.dlr.de/xsd/neteditConfiguration.xsd">

    <input>
        <sumo-net-file value="/Users/kashiisamutakeshi/vehicle-assistant-system/evacsim/data/maps/ishinomaki_routecut.net.xml"/>
    </input>

    <output>
        <output-file value="/Users/kashiisamutakeshi/vehicle-assistant-system/evacsim/data/maps/ishinomaki_routecut.net.xml"/>
    </output>

    <processing>
        <geometry.min-radius.fix.railways value="false"/>
        <geometry.max-grade.fix value="false"/>
        <offset.disable-normalization value="true"/>
        <lefthand value="1"/>
    </processing>

    <junctions>
        <no-turnarounds value="true"/>
        <junctions.corner-detail value="5"/>
        <junctions.limit-turn-speed value="5.50"/>
        <rectangular-lane-cut value="0"/>
    </junctions>

    <pedestrian>
        <walkingareas value="0"/>
    </pedestrian>

</configuration>
-->

<net version="1.20" junctionCornerDetail="5" lefthand="true" limitTurnSpeed="5.50" xmlns:xsi="http://www.w3.org/2001/XMLSchema-instance" xsi:noNamespaceSchemaLocation="http://sumo.dlr.de/xsd/net_file.xsd">

    <location netOffset="-520703.59,-4250601.64" convBoundary="632.96,1260.52,11028.38,6227.14" origBoundary="141.237328,38.305646,141.419841,38.482093" projParameter="+proj=utm +zone=54 +ellps=WGS84 +datum=WGS84 +units=m +no_defs"/>

    <type id="highway.primary" priority="12" numLanes="2" speed="27.78" disallow="tram rail_urban rail rail_electric rail_fast ship container cable_car subway aircraft wheelchair scooter drone" oneway="0"/>
    <type id="highway.primary_link" priority="7" numLanes="1" speed="22.22" disallow="tram rail_urban rail rail_electric rail_fast ship container cable_car subway aircraft wheelchair scooter drone" oneway="0"/>
    <type id="highway.residential" priority="3" numLanes="1" speed="13.89" disallow="tram rail_urban rail rail_electric rail_fast ship container cable_car subway aircraft wheelchair scooter drone" oneway="0"/>
    <type id="highway.secondary" priority="11" numLanes="1" speed="27.78" disallow="tram rail_urban rail rail_electric rail_fast ship container cable_car subway aircraft wheelchair scooter drone" oneway="0"/>
    <type id="highway.tertiary" priority="10" numLanes="1" speed="22.22" disallow="tram rail_urban rail rail_electric rail_fast ship container cable_car subway aircraft wheelchair scooter drone" oneway="0"/>
    <type id="highway.tertiary_link" priority="5" numLanes="1" speed="22.22" disallow="tram rail_urban rail rail_electric rail_fast ship container cable_car subway aircraft wheelchair scooter drone" oneway="0"/>
    <type id="highway.trunk" priority="13" numLanes="2" speed="27.78" disallow="pedestrian bicycle tram rail_urban rail rail_electric rail_fast ship container cable_car subway aircraft wheelchair scooter drone" oneway="0"/>
    <type id="highway.unclassified" priority="4" numLanes="1" speed="13.89" disallow="tram rail_urban rail rail_electric rail_fast ship container cable_car subway aircraft wheelchair scooter drone" oneway="0"/>

    <edge id=":10614560305_0" function="internal">
        <lane id=":10614560305_0_0" index="0" disallow="tram rail_urban rail rail_electric rail_fast ship container cable_car subway aircraft wheelchair scooter drone" speed="27.78" length="0.31" shape="4632.52,2426.75 4632.48,2427.06"/>
    </edge>
    <edge id=":10614560305_1" function="internal">
        <lane id=":10614560305_1_0" index="0" disallow="tram rail_urban rail rail_electric rail_fast ship container cable_car subway aircraft wheelchair scooter drone" speed="3.65" length="2.34" shape="4632.52,2426.75 4633.13,2428.06 4633.85,2428.58"/>
    </edge>
    <edge id=":10614560305_4" function="internal">
        <lane id=":10614560305_4_0" index="0" disallow="tram rail_urban rail rail_electric rail_fast ship container cable_car subway aircraft wheelchair scooter drone" speed="3.65" length="2.34" shape="4633.85,2428.58 4634.71,2428.31 4635.68,2427.25"/>
    </edge>
    <edge id=":10614560305_2" function="internal">
        <lane id=":10614560305_2_0" index="0" disallow="tram rail_urban rail rail_electric rail_fast ship container cable_car subway aircraft wheelchair scooter drone" speed="27.78" length="0.29" shape="4635.64,2427.54 4635.68,2427.25"/>
    </edge>
    <edge id=":10614560305_3" function="internal">
        <lane id=":10614560305_3_0" index="0" disallow="tram rail_urban rail rail_electric rail_fast ship container cable_car subway aircraft wheelchair scooter drone" speed="3.65" length="2.34" shape="4635.64,2427.54 4635.03,2426.23 4634.30,2425.72"/>
    </edge>
    <edge id=":10614560305_5" function="internal">
        <lane id=":10614560305_5_0" index="0" disallow="tram rail_urban rail rail_electric rail_fast ship container cable_car subway aircraft wheelchair scooter drone" speed="3.65" length="2.34" shape="4634.30,2425.72 4633.45,2425.99 4632.48,2427.06"/>
    </edge>
    <edge id=":10614560306_0" function="internal">
        <lane id=":10614560306_0_0" index="0" disallow="tram rail_urban rail rail_electric rail_fast ship container cable_car subway aircraft wheelchair scooter drone" speed="27.78" length="0.26" shape="4629.38,2447.54 4629.34,2447.80"/>
    </edge>
    <edge id=":10614560306_1" function="internal">
        <lane id=":10614560306_1_0" index="0" disallow="tram rail_urban rail rail_electric rail_fast ship container cable_car subway aircraft wheelchair scooter drone" speed="3.65" length="2.34" shape="4629.38,2447.54 4629.99,2448.84 4630.72,2449.36"/>
    </edge>
    <edge id=":10614560306_4" function="internal">
        <lane id=":10614560306_4_0" index="0" disallow="tram rail_urban rail rail_electric rail_fast ship container cable_car subway aircraft wheelchair scooter drone" speed="3.65" length="2.34" shape="4630.72,2449.36 4631.57,2449.08 4632.54,2448.02"/>
    </edge>
    <edge id=":10614560306_2" function="internal">
        <lane id=":10614560306_2_0" index="0" disallow="tram rail_urban rail rail_electric rail_fast ship container cable_car subway aircraft wheelchair scooter drone" speed="27.78" length="0.31" shape="4632.49,2448.33 4632.54,2448.02"/>
    </edge>
    <edge id=":10614560306_3" function="internal">
        <lane id=":10614560306_3_0" index="0" disallow="tram rail_urban rail rail_electric rail_fast ship container cable_car subway aircraft wheelchair scooter drone" speed="3.65" length="2.34" shape="4632.49,2448.33 4631.90,2447.01 4631.18,2446.48"/>
    </edge>
    <edge id=":10614560306_5" function="internal">
        <lane id=":10614560306_5_0" index="0" disallow="tram rail_urban rail rail_electric rail_fast ship container cable_car subway aircraft wheelchair scooter drone" speed="3.65" length="2.34" shape="4631.18,2446.48 4630.32,2446.75 4629.34,2447.80"/>
    </edge>
    <edge id=":11524106037_0" function="internal">
        <lane id=":11524106037_0_0" index="0" disallow="tram rail_urban rail rail_electric rail_fast ship container cable_car subway aircraft wheelchair scooter drone" speed="22.22" length="0.30" shape="7466.23,1865.43 7466.21,1865.13"/>
    </edge>
    <edge id=":11524106037_1" function="internal">
        <lane id=":11524106037_1_0" index="0" disallow="tram rail_urban rail rail_electric rail_fast ship container cable_car subway aircraft wheelchair scooter drone" speed="3.65" length="2.34" shape="7466.23,1865.43 7465.35,1864.29 7464.52,1863.94"/>
    </edge>
    <edge id=":11524106037_4" function="internal">
        <lane id=":11524106037_4_0" index="0" disallow="tram rail_urban rail rail_electric rail_fast ship container cable_car subway aircraft wheelchair scooter drone" speed="3.65" length="2.34" shape="7464.52,1863.94 7463.75,1864.39 7463.03,1865.64"/>
    </edge>
    <edge id=":11524106037_2" function="internal">
        <lane id=":11524106037_2_0" index="0" disallow="tram rail_urban rail rail_electric rail_fast ship container cable_car subway aircraft wheelchair scooter drone" speed="22.22" length="0.30" shape="7463.01,1865.35 7463.03,1865.64"/>
    </edge>
    <edge id=":11524106037_3" function="internal">
        <lane id=":11524106037_3_0" index="0" disallow="tram rail_urban rail rail_electric rail_fast ship container cable_car subway aircraft wheelchair scooter drone" speed="3.65" length="2.34" shape="7463.01,1865.35 7463.89,1866.49 7464.72,1866.84"/>
    </edge>
    <edge id=":11524106037_5" function="internal">
        <lane id=":11524106037_5_0" index="0" disallow="tram rail_urban rail rail_electric rail_fast ship container cable_car subway aircraft wheelchair scooter drone" speed="3.65" length="2.34" shape="7464.72,1866.84 7465.49,1866.38 7466.21,1865.13"/>
    </edge>
    <edge id=":1198023407_0" function="internal">
        <lane id=":1198023407_0_0" index="0" disallow="tram rail_urban rail rail_electric rail_fast ship container cable_car subway aircraft wheelchair scooter drone" speed="3.65" length="4.67" shape="814.86,3416.21 813.50,3416.69 812.92,3417.37 813.11,3418.24 814.08,3419.31"/>
    </edge>
    <edge id=":1199992022_0" function="internal">
        <lane id=":1199992022_0_0" index="0" disallow="pedestrian bicycle tram rail_urban rail rail_electric rail_fast ship container cable_car subway aircraft wheelchair scooter drone" speed="16.67" length="0.10" shape="1236.18,3069.18 1236.11,3069.19"/>
    </edge>
    <edge id=":1199992022_1" function="internal">
        <lane id=":1199992022_1_0" index="0" disallow="pedestrian bicycle tram rail_urban rail rail_electric rail_fast ship container cable_car subway aircraft wheelchair scooter drone" speed="3.65" length="2.34" shape="1236.18,3069.18 1235.01,3070.03 1234.64,3070.84"/>
    </edge>
    <edge id=":1199992022_4" function="internal">
        <lane id=":1199992022_4_0" index="0" disallow="pedestrian bicycle tram rail_urban rail rail_electric rail_fast ship container cable_car subway aircraft wheelchair scooter drone" speed="3.65" length="2.34" shape="1234.64,3070.84 1235.07,3071.62 1236.30,3072.38"/>
    </edge>
    <edge id=":1199992022_2" function="internal">
        <lane id=":1199992022_2_0" index="0" disallow="pedestrian bicycle tram rail_urban rail rail_electric rail_fast ship container cable_car subway aircraft wheelchair scooter drone" speed="16.67" length="0.10" shape="1236.37,3072.37 1236.30,3072.38"/>
    </edge>
    <edge id=":1199992022_3" function="internal">
        <lane id=":1199992022_3_0" index="0" disallow="pedestrian bicycle tram rail_urban rail rail_electric rail_fast ship container cable_car subway aircraft wheelchair scooter drone" speed="3.65" length="2.34" shape="1236.37,3072.37 1237.50,3071.48 1237.83,3070.65"/>
    </edge>
    <edge id=":1199992022_5" function="internal">
        <lane id=":1199992022_5_0" index="0" disallow="pedestrian bicycle tram rail_urban rail rail_electric rail_fast ship container cable_car subway aircraft wheelchair scooter drone" speed="3.65" length="2.34" shape="1237.83,3070.65 1237.37,3069.88 1236.11,3069.19"/>
    </edge>
    <edge id=":1200031114_0" function="internal">
        <lane id=":1200031114_0_0" index="0" disallow="pedestrian bicycle tram rail_urban rail rail_electric rail_fast ship container cable_car subway aircraft wheelchair scooter drone" speed="16.67" length="0.31" shape="1694.80,3047.93 1694.49,3047.94"/>
    </edge>
    <edge id=":1200031114_1" function="internal">
        <lane id=":1200031114_1_0" index="0" disallow="pedestrian bicycle tram rail_urban rail rail_electric rail_fast ship container cable_car subway aircraft wheelchair scooter drone" speed="3.65" length="2.34" shape="1694.80,3047.93 1693.64,3048.77 1693.27,3049.59"/>
    </edge>
    <edge id=":1200031114_4" function="internal">
        <lane id=":1200031114_4_0" index="0" disallow="pedestrian bicycle tram rail_urban rail rail_electric rail_fast ship container cable_car subway aircraft wheelchair scooter drone" speed="3.65" length="2.34" shape="1693.27,3049.59 1693.70,3050.37 1694.93,3051.12"/>
    </edge>
    <edge id=":1200031114_2" function="internal">
        <lane id=":1200031114_2_0" index="0" disallow="pedestrian bicycle tram rail_urban rail rail_electric rail_fast ship container cable_car subway aircraft wheelchair scooter drone" speed="16.67" length="0.28" shape="1694.65,3051.14 1694.93,3051.12"/>
    </edge>
    <edge id=":1200031114_3" function="internal">
        <lane id=":1200031114_3_0" index="0" disallow="pedestrian bicycle tram rail_urban rail rail_electric rail_fast ship container cable_car subway aircraft wheelchair scooter drone" speed="3.65" length="2.34" shape="1694.65,3051.14 1695.81,3050.28 1696.17,3049.46"/>
    </edge>
    <edge id=":1200031114_5" function="internal">
        <lane id=":1200031114_5_0" index="0" disallow="pedestrian bicycle tram rail_urban rail rail_electric rail_fast ship container cable_car subway aircraft wheelchair scooter drone" speed="3.65" length="2.34" shape="1696.17,3049.46 1695.73,3048.68 1694.49,3047.94"/>
    </edge>
    <edge id=":1200031124_0" function="internal">
        <lane id=":1200031124_0_0" index="0" disallow="pedestrian bicycle tram rail_urban rail rail_electric rail_fast ship container cable_car subway aircraft wheelchair scooter drone" speed="16.67" length="0.29" shape="1929.62,3037.57 1929.33,3037.59"/>
    </edge>
    <edge id=":1200031124_1" function="internal">
        <lane id=":1200031124_1_0" index="0" disallow="pedestrian bicycle tram rail_urban rail rail_electric rail_fast ship container cable_car subway aircraft wheelchair scooter drone" speed="3.65" length="2.34" shape="1929.62,3037.57 1928.46,3038.43 1928.10,3039.25"/>
    </edge>
    <edge id=":1200031124_4" function="internal">
        <lane id=":1200031124_4_0" index="0" disallow="pedestrian bicycle tram rail_urban rail rail_electric rail_fast ship container cable_car subway aircraft wheelchair scooter drone" speed="3.65" length="2.34" shape="1928.10,3039.25 1928.54,3040.03 1929.78,3040.77"/>
    </edge>
    <edge id=":1200031124_2" function="internal">
        <lane id=":1200031124_2_0" index="0" disallow="pedestrian bicycle tram rail_urban rail rail_electric rail_fast ship container cable_car subway aircraft wheelchair scooter drone" speed="16.67" length="0.31" shape="1929.47,3040.79 1929.78,3040.77"/>
    </edge>
    <edge id=":1200031124_3" function="internal">
        <lane id=":1200031124_3_0" index="0" disallow="pedestrian bicycle tram rail_urban rail rail_electric rail_fast ship container cable_car subway aircraft wheelchair scooter drone" speed="3.65" length="2.34" shape="1929.47,3040.79 1930.64,3039.93 1931.00,3039.12"/>
    </edge>
    <edge id=":1200031124_5" function="internal">
        <lane id=":1200031124_5_0" index="0" disallow="pedestrian bicycle tram rail_urban rail rail_electric rail_fast ship container cable_car subway aircraft wheelchair scooter drone" speed="3.65" length="2.34" shape="1931.00,3039.12 1930.56,3038.33 1929.33,3037.59"/>
    </edge>
    <edge id=":1200031147_0" function="internal">
        <lane id=":1200031147_0_0" index="0" disallow="pedestrian bicycle tram rail_urban rail rail_electric rail_fast ship container cable_car subway aircraft wheelchair scooter drone" speed="16.67" length="0.31" shape="1857.62,3040.79 1857.31,3040.81"/>
    </edge>
    <edge id=":1200031147_1" function="internal">
        <lane id=":1200031147_1_0" index="0" disallow="pedestrian bicycle tram rail_urban rail rail_electric rail_fast ship container cable_car subway aircraft wheelchair scooter drone" speed="3.65" length="2.34" shape="1857.62,3040.79 1856.45,3041.65 1856.09,3042.46"/>
    </edge>
    <edge id=":1200031147_4" function="internal">
        <lane id=":1200031147_4_0" index="0" disallow="pedestrian bicycle tram rail_urban rail rail_electric rail_fast ship container cable_car subway aircraft wheelchair scooter drone" speed="3.65" length="2.34" shape="1856.09,3042.46 1856.53,3043.25 1857.76,3043.99"/>
    </edge>
    <edge id=":1200031147_2" function="internal">
        <lane id=":1200031147_2_0" index="0" disallow="pedestrian bicycle tram rail_urban rail rail_electric rail_fast ship container cable_car subway aircraft wheelchair scooter drone" speed="16.67" length="0.29" shape="1857.47,3044.01 1857.76,3043.99"/>
    </edge>
    <edge id=":1200031147_3" function="internal">
        <lane id=":1200031147_3_0" index="0" disallow="pedestrian bicycle tram rail_urban rail rail_electric rail_fast ship container cable_car subway aircraft wheelchair scooter drone" speed="3.65" length="2.34" shape="1857.47,3044.01 1858.63,3043.15 1858.99,3042.33"/>
    </edge>
    <edge id=":1200031147_5" function="internal">
        <lane id=":1200031147_5_0" index="0" disallow="pedestrian bicycle tram rail_urban rail rail_electric rail_fast ship container cable_car subway aircraft wheelchair scooter drone" speed="3.65" length="2.34" shape="1858.99,3042.33 1858.55,3041.55 1857.31,3040.81"/>
    </edge>
    <edge id=":1200031304_0" function="internal">
        <lane id=":1200031304_0_0" index="0" disallow="pedestrian bicycle tram rail_urban rail rail_electric rail_fast ship container cable_car subway aircraft wheelchair scooter drone" speed="16.67" length="14.41" shape="1597.49,3052.66 1583.09,3053.37"/>
    </edge>
    <edge id=":1200031304_1" function="internal">
        <lane id=":1200031304_1_0" index="0" disallow="pedestrian bicycle tram rail_urban rail rail_electric rail_fast ship container cable_car subway aircraft wheelchair scooter drone" speed="8.20" length="3.97" shape="1597.49,3052.66 1593.76,3053.40 1593.62,3053.49"/>
    </edge>
    <edge id=":1200031304_2" function="internal">
        <lane id=":1200031304_2_0" index="0" disallow="pedestrian bicycle tram rail_urban rail rail_electric rail_fast ship container cable_car subway aircraft wheelchair scooter drone" speed="3.65" length="1.44" shape="1597.49,3052.66 1596.33,3053.52"/>
    </edge>
    <edge id=":1200031304_9" function="internal">
        <lane id=":1200031304_9_0" index="0" disallow="pedestrian bicycle tram rail_urban rail rail_electric rail_fast ship container cable_car subway aircraft wheelchair scooter drone" speed="8.20" length="10.31" shape="1593.62,3053.49 1591.08,3055.20 1589.45,3058.06 1588.88,3061.98"/>
    </edge>
    <edge id=":1200031304_10" function="internal">
        <lane id=":1200031304_10_0" index="0" disallow="pedestrian bicycle tram rail_urban rail rail_electric rail_fast ship container cable_car subway aircraft wheelchair scooter drone" speed="3.65" length="3.23" shape="1596.33,3053.52 1595.97,3054.34 1596.41,3055.12 1597.65,3055.86"/>
    </edge>
    <edge id=":1200031304_3" function="internal">
        <lane id=":1200031304_3_0" index="0" disallow="pedestrian bicycle tram rail_urban rail rail_electric rail_fast ship container cable_car subway aircraft wheelchair scooter drone" speed="6.75" length="9.34" shape="1592.08,3062.01 1592.45,3059.42 1593.50,3057.53 1595.23,3056.34 1597.65,3055.86"/>
    </edge>
    <edge id=":1200031304_4" function="internal">
        <lane id=":1200031304_4_0" index="0" disallow="pedestrian bicycle tram rail_urban rail rail_electric rail_fast ship container cable_car subway aircraft wheelchair scooter drone" speed="7.90" length="14.43" shape="1592.08,3062.01 1591.56,3058.06 1589.88,3055.30 1587.06,3053.74 1583.09,3053.37"/>
    </edge>
    <edge id=":1200031304_5" function="internal">
        <lane id=":1200031304_5_0" index="0" disallow="tram rail_urban rail rail_electric rail_fast ship container cable_car subway aircraft wheelchair scooter drone" speed="3.65" length="1.44" shape="1592.08,3062.01 1591.29,3060.81"/>
    </edge>
    <edge id=":1200031304_11" function="internal">
        <lane id=":1200031304_11_0" index="0" disallow="tram rail_urban rail rail_electric rail_fast ship container cable_car subway aircraft wheelchair scooter drone" speed="3.65" length="3.23" shape="1591.29,3060.81 1590.50,3060.40 1589.69,3060.79 1588.88,3061.98"/>
    </edge>
    <edge id=":1200031304_6" function="internal">
        <lane id=":1200031304_6_0" index="0" disallow="pedestrian bicycle tram rail_urban rail rail_electric rail_fast ship container cable_car subway aircraft wheelchair scooter drone" speed="6.38" length="9.04" shape="1583.25,3056.56 1585.74,3056.80 1587.50,3057.78 1588.55,3059.50 1588.88,3061.98"/>
    </edge>
    <edge id=":1200031304_7" function="internal">
        <lane id=":1200031304_7_0" index="0" disallow="pedestrian bicycle tram rail_urban rail rail_electric rail_fast ship container cable_car subway aircraft wheelchair scooter drone" speed="16.67" length="14.41" shape="1583.25,3056.56 1597.65,3055.86"/>
    </edge>
    <edge id=":1200031304_8" function="internal">
        <lane id=":1200031304_8_0" index="0" disallow="pedestrian bicycle tram rail_urban rail rail_electric rail_fast ship container cable_car subway aircraft wheelchair scooter drone" speed="3.65" length="1.44" shape="1583.25,3056.56 1584.41,3055.70"/>
    </edge>
    <edge id=":1200031304_12" function="internal">
        <lane id=":1200031304_12_0" index="0" disallow="pedestrian bicycle tram rail_urban rail rail_electric rail_fast ship container cable_car subway aircraft wheelchair scooter drone" speed="3.65" length="3.23" shape="1584.41,3055.70 1584.77,3054.89 1584.33,3054.11 1583.09,3053.37"/>
    </edge>
    <edge id=":1200031366_0" function="internal">
        <lane id=":1200031366_0_0" index="0" disallow="pedestrian bicycle tram rail_urban rail rail_electric rail_fast ship container cable_car subway aircraft wheelchair scooter drone" speed="16.67" length="0.10" shape="1370.70,3063.73 1370.70,3063.73"/>
    </edge>
    <edge id=":1200031366_1" function="internal">
        <lane id=":1200031366_1_0" index="0" disallow="pedestrian bicycle tram rail_urban rail rail_electric rail_fast ship container cable_car subway aircraft wheelchair scooter drone" speed="3.65" length="2.34" shape="1370.70,3063.73 1369.54,3064.59 1369.18,3065.41"/>
    </edge>
    <edge id=":1200031366_4" function="internal">
        <lane id=":1200031366_4_0" index="0" disallow="pedestrian bicycle tram rail_urban rail rail_electric rail_fast ship container cable_car subway aircraft wheelchair scooter drone" speed="3.65" length="2.34" shape="1369.18,3065.41 1369.62,3066.19 1370.86,3066.93"/>
    </edge>
    <edge id=":1200031366_2" function="internal">
        <lane id=":1200031366_2_0" index="0" disallow="pedestrian bicycle tram rail_urban rail rail_electric rail_fast ship container cable_car subway aircraft wheelchair scooter drone" speed="16.67" length="0.10" shape="1370.86,3066.93 1370.86,3066.93"/>
    </edge>
    <edge id=":1200031366_3" function="internal">
        <lane id=":1200031366_3_0" index="0" disallow="pedestrian bicycle tram rail_urban rail rail_electric rail_fast ship container cable_car subway aircraft wheelchair scooter drone" speed="3.65" length="2.34" shape="1370.86,3066.93 1372.02,3066.07 1372.38,3065.25"/>
    </edge>
    <edge id=":1200031366_5" function="internal">
        <lane id=":1200031366_5_0" index="0" disallow="pedestrian bicycle tram rail_urban rail rail_electric rail_fast ship container cable_car subway aircraft wheelchair scooter drone" speed="3.65" length="2.34" shape="1372.38,3065.25 1371.94,3064.47 1370.70,3063.73"/>
    </edge>
    <edge id=":1202166687_0" function="internal">
        <lane id=":1202166687_0_0" index="0" disallow="tram rail_urban rail rail_electric rail_fast ship container cable_car subway aircraft wheelchair scooter drone" speed="6.56" length="9.10" shape="1468.12,4058.49 1467.44,4060.90 1466.16,4062.52 1464.28,4063.36 1461.81,4063.41"/>
    </edge>
    <edge id=":1202166687_1" function="internal">
        <lane id=":1202166687_1_0" index="0" disallow="tram rail_urban rail rail_electric rail_fast ship container cable_car subway aircraft wheelchair scooter drone" speed="7.98" length="14.24" shape="1468.12,4058.49 1468.14,4062.40 1469.41,4065.35 1471.94,4067.34 1475.71,4068.36"/>
    </edge>
    <edge id=":1202166687_2" function="internal">
        <lane id=":1202166687_2_0" index="0" disallow="tram rail_urban rail rail_electric rail_fast ship container cable_car subway aircraft wheelchair scooter drone" speed="3.65" length="1.44" shape="1468.12,4058.49 1468.75,4059.79"/>
    </edge>
    <edge id=":1202166687_9" function="internal">
        <lane id=":1202166687_9_0" index="0" disallow="tram rail_urban rail rail_electric rail_fast ship container cable_car subway aircraft wheelchair scooter drone" speed="3.65" length="3.23" shape="1468.75,4059.79 1469.49,4060.29 1470.34,4060.00 1471.29,4058.92"/>
    </edge>
    <edge id=":1202166687_3" function="internal">
        <lane id=":1202166687_3_0" index="0" disallow="tram rail_urban rail rail_electric rail_fast ship container cable_car subway aircraft wheelchair scooter drone" speed="6.48" length="9.03" shape="1476.10,4065.19 1473.71,4064.54 1472.11,4063.27 1471.31,4061.40 1471.29,4058.92"/>
    </edge>
    <edge id=":1202166687_4" function="internal">
        <lane id=":1202166687_4_0" index="0" disallow="tram rail_urban rail rail_electric rail_fast ship container cable_car subway aircraft wheelchair scooter drone" speed="22.22" length="14.40" shape="1476.10,4065.19 1461.81,4063.41"/>
    </edge>
    <edge id=":1202166687_5" function="internal">
        <lane id=":1202166687_5_0" index="0" disallow="tram rail_urban rail rail_electric rail_fast ship container cable_car subway aircraft wheelchair scooter drone" speed="3.65" length="1.44" shape="1476.10,4065.19 1474.81,4065.83"/>
    </edge>
    <edge id=":1202166687_10" function="internal">
        <lane id=":1202166687_10_0" index="0" disallow="tram rail_urban rail rail_electric rail_fast ship container cable_car subway aircraft wheelchair scooter drone" speed="3.65" length="3.23" shape="1474.81,4065.83 1474.32,4066.58 1474.62,4067.42 1475.71,4068.36"/>
    </edge>
    <edge id=":1202166687_6" function="internal">
        <lane id=":1202166687_6_0" index="0" disallow="tram rail_urban rail rail_electric rail_fast ship container cable_car subway aircraft wheelchair scooter drone" speed="22.22" length="14.40" shape="1461.42,4066.58 1475.71,4068.36"/>
    </edge>
    <edge id=":1202166687_7" function="internal">
        <lane id=":1202166687_7_0" index="0" disallow="tram rail_urban rail rail_electric rail_fast ship container cable_car subway aircraft wheelchair scooter drone" speed="8.04" length="4.05" shape="1461.42,4066.58 1465.29,4066.51 1465.45,4066.44"/>
    </edge>
    <edge id=":1202166687_8" function="internal">
        <lane id=":1202166687_8_0" index="0" disallow="tram rail_urban rail rail_electric rail_fast ship container cable_car subway aircraft wheelchair scooter drone" speed="3.65" length="1.44" shape="1461.42,4066.58 1462.71,4065.94"/>
    </edge>
    <edge id=":1202166687_11" function="internal">
        <lane id=":1202166687_11_0" index="0" disallow="tram rail_urban rail rail_electric rail_fast ship container cable_car subway aircraft wheelchair scooter drone" speed="8.04" length="10.16" shape="1465.45,4066.44 1468.22,4065.21 1470.22,4062.68 1471.29,4058.92"/>
    </edge>
    <edge id=":1202166687_12" function="internal">
        <lane id=":1202166687_12_0" index="0" disallow="tram rail_urban rail rail_electric rail_fast ship container cable_car subway aircraft wheelchair scooter drone" speed="3.65" length="3.23" shape="1462.71,4065.94 1463.20,4065.19 1462.91,4064.35 1461.81,4063.41"/>
    </edge>
    <edge id=":1202166775_0" function="internal">
        <lane id=":1202166775_0_0" index="0" disallow="tram rail_urban rail rail_electric rail_fast ship container cable_car subway aircraft wheelchair scooter drone" speed="22.22" length="0.29" shape="1109.18,4011.95 1108.89,4011.91"/>
    </edge>
    <edge id=":1202166775_1" function="internal">
        <lane id=":1202166775_1_0" index="0" disallow="tram rail_urban rail rail_electric rail_fast ship container cable_car subway aircraft wheelchair scooter drone" speed="3.65" length="2.34" shape="1109.18,4011.95 1107.88,4012.56 1107.36,4013.29"/>
    </edge>
    <edge id=":1202166775_4" function="internal">
        <lane id=":1202166775_4_0" index="0" disallow="tram rail_urban rail rail_electric rail_fast ship container cable_car subway aircraft wheelchair scooter drone" speed="3.65" length="2.34" shape="1107.36,4013.29 1107.63,4014.14 1108.69,4015.11"/>
    </edge>
    <edge id=":1202166775_2" function="internal">
        <lane id=":1202166775_2_0" index="0" disallow="tram rail_urban rail rail_electric rail_fast ship container cable_car subway aircraft wheelchair scooter drone" speed="22.22" length="0.31" shape="1108.39,4015.07 1108.69,4015.11"/>
    </edge>
    <edge id=":1202166775_3" function="internal">
        <lane id=":1202166775_3_0" index="0" disallow="tram rail_urban rail rail_electric rail_fast ship container cable_car subway aircraft wheelchair scooter drone" speed="3.65" length="2.34" shape="1108.39,4015.07 1109.70,4014.47 1110.22,4013.74"/>
    </edge>
    <edge id=":1202166775_5" function="internal">
        <lane id=":1202166775_5_0" index="0" disallow="tram rail_urban rail rail_electric rail_fast ship container cable_car subway aircraft wheelchair scooter drone" speed="3.65" length="2.34" shape="1110.22,4013.74 1109.95,4012.89 1108.89,4011.91"/>
    </edge>
    <edge id=":1202167073_0" function="internal">
        <lane id=":1202167073_0_0" index="0" disallow="tram rail_urban rail rail_electric rail_fast ship container cable_car subway aircraft wheelchair scooter drone" speed="22.22" length="0.31" shape="1559.61,3279.31 1559.58,3279.62"/>
    </edge>
    <edge id=":1202167073_1" function="internal">