<?xml version="1.0" encoding="UTF-8"?>

<!-- generated on 2026-03-11 15:48:44.589450 by randomTrips.py fe51c07
<configuration>
    <net-file value="ishinomaki_light.net.xml"/>
    <route-file value="routes.rou.xml"/>
</configuration>
-->

<!-- generated on 2026-03-11 15:48:37 by Eclipse SUMO duarouter Version 1.20.0
<configuration xmlns:xsi="http://www.w3.org/2001/XMLSchema-instance" xsi:noNamespaceSchemaLocation="http://sumo.dlr.de/xsd/duarouterConfiguration.xsd">

    <input>
        <net-file value="ishinomaki_light.net.xml"/>
        <route-files value="trips.trips.xml"/>
    </input>

    <output>
        <output-file value="routes.rou.xml"/>
        <alternatives-output value="NUL"/>
    </output>

    <time>
        <begin value="0"/>
        <end value="3600"/>
    </time>

    <report>
        <no-warnings value="true"/>
        <ignore-errors value="true"/>
        <no-step-log value="true"/>
    </report>

</configuration>
-->

<routes xmlns:xsi="http://www.w3.org/2001/XMLSchema-instance" xsi:noNamespaceSchemaLocation="http://sumo.dlr.de/xsd/routes_file.xsd">
    <vehicle id="0" depart="0.00">
        <route edges="206697670#0 -206697670#1 206697651 -362326297#0 -104497261#10 -104497261#8 104761560#0 104761560#2 104202327#12 103654149#0 103654149#2 103654149#6 103654149#8 103654149#10 103654149#11 103654149#12 104203671#0 -104204701#4 -104204701#2 -104204697"/>
    </vehicle>
    <vehicle id="2" depart="2.00">
        <route edges="207302315#1 206705989#15 206705989#16 206705989#18 206705989#19 206705989#22 207302335#2 207302335#3 -941860082#2 -941860082#1 -941860082#0 -483469161 -1002539876#1 -1002539876#0 -611756420#1 -1007317003#4 -1007317003#2 -732339025#2 -992371765#1 -610350140#18 916919850#2 206703944#17 206703944#18 206703944#20 206704021#2"/>
    </vehicle>
    <vehicle id="3" depart="3.00">
        <route edges="610280796#1 206703953#0 -206703950#1 105199625#14 105199625#17 1456541840#0 363405376#0 363405376#2 363405376#4 363405376#6 363405376#7 1456538727 704235517#1 704235517#3 704235517#5 704235517#9 485340200#0 485340200#3 485340200#5 439399550#0 439399550#2 439399550#4 439399550#6 439399552#0 439399552#1 439399552#2 439399551#0 439399551#1 439399551#3 439399551#4 439399551#5 106507791#0 106507791#1 -106507791#1"/>
    </vehicle>
    <vehicle id="4" depart="4.00">
        <route edges="-78180524#10 -78180524#7 -78180524#5 80804184#23 80804184#39 80804184#44 80804184#52 931312220#0 931312220#4 931312220#8 931312220#9 728007238#2 728007238#4 -208412104#6 728007248#0 -728007242#6 -104312042#0"/>
    </vehicle>
    <vehicle id="5" depart="5.00">
        <route edges="-206707421 -206707613#0 -206707619#0 -206707611 -104407881#4 -104407881#3 -104407881#2 -104483911#14 -104483911#11 -104483911#8 -104483911#4 -104483911#3 -104483911#1 -104483911#0 -931312221#10 -931312221#9 -931312221#8 -931312221#7 -931312221#6 -931312221#5 -931312221#4 -931312221#0 -931312222 -931312218#2 -931312218#0 931312219#1 931312219#2 931312219#7 -80804184#57 -80804184#51 -80804184#43 -80804184#38 -80804184#22 -80804184#15 -80804184#5 -80804184#0 -1453374503#4 -1453374503#1 -78180517#7 -78180517#4 -78180517#3 -78180517#0 -78180518#1 104761560#0 104761560#2 104761560#5 104761560#7 104761560#8 104761560#11 104761560#13 104761560#14 -104202331#7 104202331#7"/>
    </vehicle>
    <vehicle id="6" depart="6.00">
        <route edges="-104277944#14 -104277944#13 -104277944#12 -104277944#11 439399549#3 439399549#5 -485333514#8 -485333514#6 -485333514#5 -485333514#4 -485333514#3 -485333514#2 -485333514#0 -834246957#1 -834246958#2 -834246959#11 -834246959#6 -104353111#27 -104353111#23 -104353111#21 -104353111#18 -104353111#13 -104353111#11 -104353111#9 -104353111#5 -104353111#1 -105885697#1 -834246962 -1453374510#1 -105885686#2 -78180514#22 -78180514#17 -78180514#15 -78180514#14 -78180514#13 -78180514#11 -78180514#9 -78180514#7 -78180514#3 -78180514#0 -1451955626#1 -1451955671 -38845019#11 -38845019#9 -38845019#7 -38845019#5 -38845019#3 -104357434#14 -104357434#11 -104357434#8 -104357434#4 -104357434#2 -901607272#1 1458138222 -104357435#47 -104357435#46 -104357435#45 -104357435#44 -104357435#41 -104357435#40 -104357435#38 -104357435#36 -104357435#34 -104357435#33 -104357435#32 -104357435#30 -104357435#28 -104357435#26 -104357435#22 -104357435#21 -104357435#20 -104357435#18 -104357435#17 -104357435#15 -104357435#7 -104357435#6 -104357435#4 -104357435#2 941860081#0 941860081#1 941860081#3 941860081#6 941860081#9 941860081#12 941860081#13 941860081#14 941860081#16 941860081#17 941860081#22 941860081#26 941860081#27 376520639#1 376520639#2 376520639#3 376520639#4 376520639#6 376520639#7 -206705448#11 -206706003#5 -206706003#2 206705788#0 -206705903#11 -206705903#9"/>
    </vehicle>
    <vehicle id="7" depart="7.00">
        <route edges="206702226#14 -206702226#14 -206702226#13 -206702226#12 -206702226#11 -206702226#9 -206702226#8 206702194#0 -104353111#9 -104353111#5 -104353111#1 -104497261#10 -104497261#8 -104497261#6 -104497261#4 -104497261#2 -104497261#0 1158951668 104359850#0 104359850#4 104359850#5 104359850#7 104359850#8 104359850#10 104359850#12 104359850#14 104359850#16"/>
    </vehicle>
    <vehicle id="8" depart="8.00">
        <route edges="-206707615 -206707628#1 -206707628#0 -206707612 -206707618#1 -206707618#0 -206707620 -104312035#1 -104483911#14 -104483911#11 -104483911#8 -104483911#4 -104483911#3 -104483911#1 -104483911#0 -931312221#10 -931312221#9 -931312221#8 -931312221#7 -931312221#6 -931312221#5 -931312221#4 -931312221#0 -931312222 -931312218#2 -931312218#0 931312219#1 931312219#2 931312219#7 -80804184#57 -80804184#51 -80804184#43 -80804184#38 -80804184#22 -80804184#15 -80804184#5 -80804184#0 -1453374503#4 105885686#0 1453374510#0 1453374510#2 105885697#0 104353111#0 104353111#2 104202327#0 1451666431"/>
    </vehicle>
    <vehicle id="9" depart="9.00">
        <route edges="209463616#1 209463616#2 -209463623#3 -209463623#1 -209463623#0 -209463249#4 -209463249#2 -209463249#1 -78180517#0 -78180518#1 104761560#0 104761560#2 104202327#12 103654149#0 103654149#2 103654149#6 103654149#8 103654149#10 103654149#11 103654149#12 103654149#14 103654149#16 103654149#18 103654149#20 103654149#22 103654149#23 103654149#27 103654149#29 103654149#32 103654149#36 103654149#38 103654149#39 -103654149#40"/>
    </vehicle>
    <vehicle id="10" depart="10.00">
        <route edges="209463594#1 104360527#0 104360527#1 104360527#3 -206703988#4 -104353903#10 1091124445#0 1091124445#3 1091124445#5 1091124445#6 1091124445#8 1091124445#13 1091124445#14 1091124445#15 611756456#0 611756456#2 611756456#3 611756456#4 732339025#0 1007317003#0 1007317003#3 611756420#0 1002539876#0 1002539876#1 483469161 281792503 941860082#1 941860082#2 570408295#0 570408295#1 -206705989#21 -206705989#18 -206705989#17 206705989#16"/>
    </vehicle>
    <vehicle id="11" depart="11.00">
        <route edges="-485333514#6 -485333514#5 -485333514#4 -485333514#3 -485333514#2 187148771#0 -187148760#3 -206702221#1 -206702225"/>
    </vehicle>
    <vehicle id="12" depart="12.00">
        <route edges="903822325#2 206703748#12 206703748#13 1002539876#0 1002539876#1 206703101#0 206703101#3 -206703144#0 -206703112#3 -206703112#2 -206703112#1 -206703112#0 570507933#0 570507933#1 570507933#2 -570507930#5 -570507930#2 -570507930#0 206652929#0 206652929#1 206652929#2 206652929#3 206652929#6 206652929#8 206652929#10 206652929#11 206652929#13 208475582#0 104344861#0 104344861#1 104344861#2 104344861#3 104344861#4 104344861#6 104344861#10 104344861#15 104344861#17 104344861#18 104344861#20 104344861#21 104344861#30 104344861#42 104344861#44 104344861#46 104344861#50 104344861#53 104344861#57 104344861#60 105885708#0 105885659#2 105885659#5 -373414886#5 -373414886#2 -373414886#1 -441718553#2"/>
    </vehicle>
    <vehicle id="13" depart="13.00">
        <route edges="-1162765733 -206707714#0 -206707947#2 -206707947#1 1162765729 -1162765728#0 104497263#10 -441718553#6 373414886#1 373414886#2 373414886#3 -105885659#6 -105885659#4 -105885659#1 -104344861#61 -104344861#59 -104344861#55 -104344861#52 -104344861#47 -104344861#45 -104344861#43 -104344861#41 931312219#7 -80804184#57 -80804184#51 -80804184#43 -80804184#38 -80804184#22 -80804184#15 -80804184#5 -80804184#0 -1453374503#4 -1453374503#1 -78180517#7 -78180517#4 -78180517#3 209463249#0 209463249#2 209463249#3 209463249#5 598378611#0 598378611#1 598378611#2 1158951666#0 1158951666#1 1158951666#2 1158951666#3 1158951666#4 1158951666#5 1158951666#6 206703936#1 206703936#3 -206703932#13 1391322051 -1391322051"/>
    </vehicle>
    <vehicle id="14" depart="14.00">
        <route edges="562048176#1 562048171#1 562048171#2 -562048171#8 562048173#0 -562048174 -562048162#2 -562048162#1 -562048162#0 562048163#0 562048163#1 229843997 229844019#0 229844019#1 229844019#5 229844019#9 229844019#10 689472749#33 1451612481#0 -104361690 -104353903#86 -104353903#76 181203057#0 181203057#2"/>
    </vehicle>
    <vehicle id="15" depart="15.00">
        <route edges="209463601#2 663708137#0 663708137#1 -663708500#1 -704235512#8 834246957#2 485333514#1 485333514#3 485333514#4 485333514#5 485333514#6 485333514#7 232285783#0 232285783#3 232285783#6 104356259#0 -562140153#20 -562140153#16 -562140153#15 562264550#3 206818246#5 206818246#6 206818246#7"/>
    </vehicle>
    <vehicle id="16" depart="16.00">
        <route edges="104359256#10 104359256#11 1451666476 209463624#2 1453374510#2 -105885643#3 -105885643#1 -78180518#1 -104497261#6 -104497261#4 -104497261#2 -104497261#0 1158951668 104359850#0 104359850#4 104359850#5 104359850#7 104359850#8 104359850#10 104359850#12 104359850#14 104359850#16 610350140#0 610350140#2 610350140#4 610350140#6 610350140#8 610350140#9 610350140#11 610350140#13 610350140#14 206703958#4 925091542#0"/>
    </vehicle>
    <vehicle id="17" depart="17.00">
        <route edges="-593459211#1 -593459212#1 -593459212#0 -104359847#11 -104359847#10 -104359847#9 -104359847#8 -104359847#3 -104353903#29 -104353903#22 -104353903#19 -104353903#18 -104353903#16 -104353903#14 -104353903#12 -104353903#10 1091124445#0 -104362095#23 -104362095#18 -104362095#15 -104362095#13 -104362095#8 -104362095#7 -104362095#5 -104362095#4 -104362095#3 -104362095#2 -104362095#1 104362095#0"/>
    </vehicle>
    <vehicle id="18" depart="18.00">
        <route edges="363228410 -363228410 -206655813#5 -206655813#3 -206655813#2 -104344861#9 -104344861#5 -104344861#3 -104344861#2 -104344861#1 -104344861#0 -208475582#3 -206652929#14 -206652929#11 -206652929#10 -206652929#8 -206652929#7 -206652929#5 -206652929#2 -206652929#1 -206652929#0 -207469374 181035289 -104362097#33 -206652850#2 206652850#2"/>
    </vehicle>
    <vehicle id="19" depart="19.00">
        <route edges="562517680#1 -1457862275 -562517682#1 -209463548#2 -209463548#1 -209463548#0 -104353904#13 104191587#0 104191587#2 104191587#3 104191587#4 104191587#5 104191587#7 104191587#11 104191587#12 104191587#14 104191587#15 104191587#21 104191587#25 104191587#28 104761560#18 485340200#0 485340200#3 485340200#5 439399550#0 439399550#2 -104277944#8 -104277944#6 -104277944#4 106511085#0 106511085#2"/>
    </vehicle>
    <vehicle id="20" depart="20.00">
        <route edges="206706126#0 -206706126#1 104357435#29 104357435#31 104357435#33 104357435#34 104357435#35 104357435#37 104357435#39 104357435#41 104357435#42 104357435#45 104357435#46 104357435#47 104357435#48 901607272#0 208475582#0 104344861#0 104344861#1 104344861#2 104344861#3 104344861#4 104344861#6 104344861#10 104344861#15 104344861#17 104344861#18 104344861#20 104344861#21 104344861#30 1453568443#0 -104359248#9 104359246#0 104359246#1 -104359246#3"/>
    </vehicle>
    <vehicle id="21" depart="21.00">
        <route edges="-206713786#3 -206713786#1 -206713786#0 783295148 1158664547 1158664548#1 1158664548#2 -610350139#28 -610350139#27 -610350139#26 -610350139#24 -610350139#23 -610350139#22 -610350139#21 105199625#11 105199625#13 105199625#14 105199625#17 -104353903#76 -104353903#74 -104353903#69 -104353903#68 -104353903#64 -104353903#63 -104353903#61 -104353903#58 -104353903#56 -104353903#54 -104353903#51 -104359850#19 -104359850#14 -104359850#13 -104359850#10 -104359850#8 -104359850#7 -104359850#5 -104359850#4 -104359850#3 -1155927992#6 -1155927992#4 -1155927992#3 -1155927992#2 -1155927992#0 -1158951666#4 -1158951666#3 -1158951666#2 -1158951666#1 -104360516#29 -104360516#26 -209463384"/>
    </vehicle>
    <vehicle id="22" depart="22.00">
        <route edges="-104497263#9 104497263#9 104497263#10 -441718553#6 373414886#1 373414886#2 373414886#3 -105885659#6 -105885659#4 -105885659#1 -104344861#61 -104344861#59 -104344861#55 -104344861#52 -104344861#47 -104344861#45 -104344861#43 -104344861#41 931312219#7 -80804184#57 -80804184#51 -80804184#43 -80804184#38 -80804184#22 -80804184#15 -80804184#5 -80804184#0 -1453374503#4 -1453374503#1 -78180517#7 -78180517#4 -78180517#3 -78180517#0 -78180518#1 104761560#0 104761560#2 104761560#5 104761560#7 104761560#8 104761560#11 104761560#13 104761560#14 104761560#15 104761560#18 485340200#0 485340200#3 485340200#5 439399550#0 439399550#2 439399550#4 206818015#0 -206818028#0"/>
    </vehicle>
    <vehicle id="23" depart="23.00">
        <route edges="-1451666472#4 -1451666472#3 -1451666472#2 1451666470#0 1451666470#2 1451666470#3 1451666470#5 1451666470#6 1451666470#7 1451666470#8 1451666470#9 1451666470#10 1451666470#11 1451666470#12 1451666470#13 1451666470#15 1451666470#16 1451666470#18 704235512#12 -212302941#6 -212302941#4 -212302941#3 -212302941#1 209463235#0 209463235#1 209463235#2 -209463235#2"/>
    </vehicle>
    <vehicle id="24" depart="24.00">
        <route edges="206655811#0 206655811#1 -206655813#8 -206655813#5 -206655813#3 -206655813#2 -104344861#9 -104344861#5 -104344861#3 -104344861#2 -104344861#1 -104344861#0 -208475582#3 -206652929#14 -206652929#11 -206652929#10 -206652929#8 -206652929#7 -206652929#5 -206652929#2 -206652929#1 -206652929#0 570507930#0 570507930#2 570507930#4 -570507933#3 -570507933#1 -570507933#0 206703112#0 206703112#1 206703112#2 206703112#3 570501803#0 570501803#2 570501803#3 570501803#5 -570501801#2 -570501801#0"/>
    </vehicle>
    <vehicle id="25" depart="25.00">
        <route edges="-571049238#8 -571049238#4 105199625#17 -104353903#76 -104353903#74 -104353903#69 -104353903#68 -104353903#64 -104353903#63 -104353903#61 -104353903#58 -104353903#56 -104353903#54 -104353903#51 -104353903#48 -104353903#46 -104353903#42 -104353903#40 -104353903#35 -104353903#29 -104353903#22 -104353903#19 -104353903#18 -104353903#16 -104353903#14 -104353903#12 -104353903#10 -1451955625#34 -1451955625#22 -1451955625#21 -1451955625#15 -1451955625#13 -1451955625#8 -1451955625#6 -1451955625#5 -1451955625#1 -1451955625#0 -78180508 -1451955626#1 -1451955671 -38845019#11 -38845019#9 -38845019#7 -38845019#5 -38845019#3 -104357434#14 -104357434#11 -104357434#8 -104357434#4 -104357434#2 -901607272#1 1458138222 -104357435#47 -104357435#46 -104357435#45 -104357435#44 -104357435#41 -104357435#40 -104357435#38 -104357435#36 -104357435#34 -104357435#33 -206706098#2 206705661#0 206705589#0 206706351#0 206706351#2 -206706179#2"/>
    </vehicle>
    <vehicle id="26" depart="26.00">
        <route edges="-209000861#0 209000868 -931312221#6 -931312221#5 -931312221#4 -931312221#0 -931312222 -931312218#2 -931312218#0 931312219#1 931312219#2 931312219#7 -80804184#57 -80804184#51 -80804184#43 -80804184#38 -80804184#22 -80804184#15 80804184#6"/>
    </vehicle>
    <vehicle id="27" depart="27.00">
        <route edges="206702215#0 206702215#1 206702215#3 104696568#3 104696568#4 948321275 206702375#0 206702375#1 206702375#2 -206702418#20 -206702418#19 -206702418#18 -206702418#16 206702408 206702415 206702384#0 104356260#8 1451666471#6 104228394#0 931307981#0 -199913504#9 -199913504#7 -199913504#6 -199913504#3 -199913504#2 199921279#7 199921279#8"/>
    </vehicle>
    <vehicle id="28" depart="28.00">
        <route edges="-206703944#0 208408369#1 208408369#4 208408369#7 104353903#43 104353903#47 104353903#49 104353903#52 104353903#55 104353903#57 104353903#59 104353903#62 104353903#64 104353903#65 104353903#69 104353903#70 104353903#75 104353903#77 104353903#87 -1451612481#1 -689472749#34 -689472749#32 -689472749#30 -937444289#2 104384050#0 104384050#1 104384050#2 104384050#3 -485341899#14 -485341899#13 -485341899#12 -485341899#9 -485341899#7 -485341899#3 -485341899#0 -483968553#1 -483968553#0 -104183941#3 -206818243 206818243"/>
    </vehicle>
    <vehicle id="29" depart="29.00">
        <route edges="-206702642#1 -103648392#14 -103648392#13 -103648392#12 -103648392#11 -103648392#10 -103648392#9 -103648392#7 -103648392#6 -103648392#3 -103648392#1 -439399552#2 -439399552#1 -439399552#0 439399549#0 439399549#1 439399549#3 439399549#5 104358326#0 104358326#2 104358326#4 104358326#5 704235514#1 704235514#4 704235514#7 704235514#14 704235514#16 704235514#17 663708134#0 663708134#1 663708134#3 663708134#5 -1451666378 -104353903#76 -104353903#74 -104353903#69 -104353903#68 -104353903#64 -104353903#63 -104353903#61 -104353903#58 -104353903#56 -104353903#54 -104353903#51 -104353903#48 -104353903#46 -104353903#42 -104353903#40 -104353903#35 -104353903#29 -593459218#3 -593459218#0 -593459216#2 -593459216#1 -593459216#0"/>
    </vehicle>
    <vehicle id="30" depart="30.00">
        <route edges="941860080#2 570408294#3 941860079#1 941860079#4 207302309#0 207302309#1 207302309#2 104357435#1 104357435#4 104357435#5 104357435#7 104357435#8 104357435#17 104357435#18 104357435#19 104357435#21 104357435#22 104357435#23 104357435#27 104357435#29 104357435#31 104357435#33 104357435#34 104357435#35 104357435#37 104357435#39 104357435#41 104357435#42 104357435#45 104357435#46 104357435#47 104357435#48 901607272#0 104357434#0 104357434#3 104357434#5 104357434#9 104357434#12 38845019#0 38845019#4 38845019#6 38845019#8 38845019#10 1451955670 1451955626#0 78180514#0 78180514#1 78180514#4 78180514#8 78180514#11 78180514#13 78180514#14 78180514#15 78180514#16 78180514#18 105885686#0 1453374510#0 1453374510#2 105885643#4 -947128217 -206697707#2 -206697707#1 206697686#0"/>
    </vehicle>
    <vehicle id="31" depart="31.00">
        <route edges="104385752#3 104385752#5 -104385773#1 -104384025#25 -104384025#24 -104384025#23 -104384025#21 663708134#3 663708134#5 -1451666378 -104353903#76 -104353903#74 -104353903#69 -104353903#68 -104353903#64 -104353903#63 -104353903#61 -104353903#58 -104353903#56 -104353903#54 -104353903#51 -104353903#48 -104353903#46 -104353903#42 -104353903#40 -104353903#35 -104353903#29 -104353903#22 -104353903#19 -104353903#18 -104353903#16 -104353903#14 -104353903#12 -104353903#10 -1451955625#34 -1451955625#22 -1451955625#21 -1451955625#15 -1451955625#13 -1451955625#8 -1451955625#6 -1451955625#5 -1451955625#1 -1451955625#0 -78180508 -1451955626#1 -1451955671 -38845019#11 -38845019#9 -38845019#7 -38845019#5 -38845019#3 -104357434#14 -104357434#11 -104357434#8 -104357434#4 -104357434#2 -901607272#1 1458138222 -104357435#47 -104357435#46 -104357435#45 -104357435#44 -104357435#41 -104357435#40 -104357435#38 -104357435#36 -104357435#34 -104357435#33 -104357435#32 -104357435#30 -104357435#28 -104357435#26 -104357435#22 -104357435#21 -104357435#20 -104357435#18 -104357435#17 -104357435#15 -104357435#7 -104357435#6 -104357435#4 -687775197#33 -687775197#29 -687775197#28 -687775197#25 -687775197#19 -687775197#16 -687775197#14 -687775197#12 -687775197#9 -687775197#8 -687775197#6 -687775197#5 -687775197#4 -687775197#3 -687775197#2 -687775197#1 -207411875#10 -207411875#4 -207411875#3 -207411875#1 -207411875#0 206705376#1"/>
    </vehicle>
    <vehicle id="32" depart="32.00">
        <route edges="531215442#0 -531215442#0 1264786363#0 704598028#0 704598028#1 -80804184#5 -80804184#0 -1453374503#4 -1453374503#1 -78180517#7 -78180517#4 -78180517#3 -78180517#0 -78180518#1 104761560#0 104761560#2 104202327#12 103654149#0 103654149#2 103654149#6 103654149#8 103654149#10 103654149#11 103654149#12 104203671#0 104203671#2 -104355603#3 -104355603#1 209463588#1 209463229#2 209463229#3 209463229#4 209463229#5 209463229#6 209463229#7"/>
    </vehicle>
    <vehicle id="33" depart="33.00">
        <route edges="-206817382#20 206817382#17 104353903#30 104353903#36 104353903#41 104353903#43 104353903#47 -104359850#19 -104359850#14 -104359850#13 -104359850#10 -104359850#8 -104359850#7 -104359850#5 -104359850#4 -104359850#3 -732339029 1451612481#14 104497261#1 104497261#3 104497261#5 104497261#7 104497261#9 104353111#0 104353111#2 104353111#7 104353111#10 104353111#12 -104353111#13"/>
    </vehicle>
    <vehicle id="34" depart="34.00">
        <route edges="-229843993#3 946203490#0 229844023#1 229844023#3 229844023#4 229844023#6 229844023#7 229844023#8 229844023#9 229844023#11 229844023#12 1451612481#0 -104361690 -104353903#86 -104353903#76 -104353903#74 -104353903#69 -104353903#68 -104353903#64 -104353903#63 -104353903#61 -104353903#58 -104353903#56 -104353903#54 -104353903#51 -104353903#48 -104353903#46 -104353903#42 -104353903#40 -104353903#35 -104353903#29 -104353903#22 -104353903#19 -104353903#18 -104353903#16 -104353903#14 -104353903#12 -104353903#10 -1451955625#34 -1451955625#22 -1451955625#21 -1451955625#15 -1451955625#13 -1451955625#8 -1451955625#6 -1451955625#5 -1451955625#1 -1451955625#0 -78180508 -1451955626#1 -1451955671 -38845019#11 -38845019#9 -38845019#7 -38845019#5 -38845019#3 -104357434#14 -104357434#11 -104357434#8 -104357434#4 -104357434#2 -901607272#1 1458138222 888658978 104357634#1 104357634#3 104357634#4 104357634#7 104357634#9 104357634#10 104357634#11 104357634#15 104357634#17 104357634#20 931312221#0 931312221#1 931312221#5 931312221#6 931312221#7 931312221#8 931312221#9 931312221#10 931312221#11 104483911#1 104483911#2 104483911#4 206707911#0 206707911#2 -208408365#4 -206707760#1 -206707476#1 -206707476#0 -206707478#2 -206707478#1 -209000869#1 -209000869#0"/>
    </vehicle>
    <vehicle id="35" depart="35.00">
        <route edges="-206706227 206706003#1 206705788#0 -206705903#11 886625216#0 886625218#1"/>
    </vehicle>
    <vehicle id="36" depart="36.00">
        <route edges="584427999#0 -584428000#1 104359850#10 104359850#12 104359850#14 104359850#16 -104353903#48 -104353903#46 -104353903#42 -104353903#40 -104353903#35 -104353903#29 -104353903#22 -104353903#19 -104353903#18 -104353903#16 -104353903#14 -104353903#12 -104353903#10 104362097#0 104362097#2 104362097#4 104362097#8 104362097#9 104362097#10 104362097#13 104362097#14 -212736434#1"/>
    </vehicle>
    <vehicle id="37" depart="37.00">
        <route edges="206702443#5 -206702418#12 -104356260#3 -1487303151#1 -704235512#14 -704235512#12 -1451666470#19 -1451666470#16 -1451666470#15 -1451666470#14 -1451666470#12 -1451666470#11 -1451666470#10 -1451666470#9 -1451666470#8 -1451666470#7 -1451666470#6 -1451666470#5 -1451666470#4 -1451666470#2 -1451666470#1 1451666439#0 1451666444 -104357232 -104357230#3 -104357230#2 206697704#0 206697704#2 206697675#0 -530958779#1 -627202941#28"/>
    </vehicle>
    <vehicle id="38" depart="38.00">
        <route edges="704235508#0 -704235508#0 -104696568#0 -1451666470#7 -1451666470#6 -209463577#2 -209463577#1 -209463577#0 206702184 -206702222 -104353111#23 -104353111#21 -104353111#18 -104353111#13 -104353111#11 -104353111#9 -104353111#5 -104353111#1 -105885697#1 -834246962 -1453374510#1 -105885686#2 -78180514#22 -78180514#17 -78180514#15 -78180514#14 -78180514#13 -78180514#11 -78180514#9 -78180514#7 -78180514#3 -78180514#0 -1451955626#1 -1451955671 -38845019#11 -38845019#9 -38845019#7 -38845019#5 -38845019#3 -104357434#14 -104357434#11 -104357434#8 -104357434#4 -104357434#2 -901607272#1 1458138222 888658978 104357634#1 104357634#3 104357634#4 206706257 206706315#0 920055070 -920055070"/>
    </vehicle>
    <vehicle id="39" depart="39.00">
        <route edges="-209000841 206707625#1 -206707628#1 -206707628#0 -206707612 -206707618#1 -206707618#0 -206707620 -104312035#1 -104483911#14 -104483911#11 -104483911#8 -104483911#4 -104483911#3 -104483911#1 -104483911#0 -931312221#10 -931312221#9 -931312221#8 -931312221#7 -931312221#6 -931312221#5 -931312221#4 -931312221#0 -104357634#20 -104357634#18 -104357634#16 -104357634#14 -104357634#10 -104357634#9 -104357634#8 -104357634#5 -104357634#3 -104357634#2 -104357634#0 -104357435#47 -104357435#46 -104357435#45 -104357435#44 -104357435#41 -104357435#40 -104357435#38 -104357435#36 -104357435#34 -104357435#33 -104357435#32 -104357435#30 -104357435#28 -104357435#26 -104357435#22 206706345#0 206706345#2 206706345#3 206705722 206706218#0 206706218#1 206706218#3 -206706133#1 -207302422#5 -207302422#4 -207302422#3 -207302422#2"/>
    </vehicle>
    <vehicle id="40" depart="40.00">
        <route edges="104407881#9 -738380976 -104407881#8 -104407881#6 -104407881#4 -104407881#3 -104407881#2 -104483911#14 -104483911#11 -104483911#8 -104483911#4 -104483911#3 -104483911#1 -104483911#0 -931312221#10 -931312221#9 -931312221#8 -931312221#7 -931312221#6 -931312221#5 -931312221#4 -931312221#0 -104357634#20 -104357634#18 -104357634#16 -104357634#14 -104357634#10 -104357634#9 -104357634#8 -104357634#5 -104357634#3 -104357634#2 -104357634#0 104357435#48 901607272#0 -206652929#14 -206652929#11 -206652929#10 -206652929#8 -206652929#7 -206652929#5 -206652929#2 -206652929#1 -206652929#0 -207469374 181035289 -104362097#33 -104362097#26 -104362097#23 -206652841#4 208418303 -208418303"/>
    </vehicle>
    <vehicle id="41" depart="41.00">
        <route edges="1240359536#0 -1240359536#0 207302302#1 207302302#2 207302302#3 104357435#23 104357435#27 -611756433#2 -611756433#0 -1046402445#1 -1046402445#0 1046402446 570501804#2 570501804#4 570501804#6 570501804#8 -1007317003#4 -1007317003#2 -732339025#2 -992371765#1 610350140#19 732339024 -105199629#2 -105199629#1 -610350143#1 610350143#1"/>
    </vehicle>
    <vehicle id="42" depart="42.00">
        <route edges="-687775173#3 -687775173#2 -687775173#1 -687775173#0 206706248#4 206706248#12 -1453910219#5 -1453910219#0 916925141#0 923795054#1 206707304#0 -738380976 -104407881#8 -104407881#6 -104407881#4 -104407881#3 -104407881#2 104312035#0 104312035#2 104312035#3 -206707664#2 -206707664#1 -206707664#0 206707478#0 -206707478#0"/>
    </vehicle>
    <vehicle id="43" depart="43.00">
        <route edges="949182598#3 -949182598#3 -949182598#2 -949182595#2 732339014#1 732339014#2 105199625#3 105199625#6 105199625#8 105199625#11 105199625#13 105199625#14 105199625#17 1456541840#0 363405376#0 363405376#2 363405376#4 363405376#6 363405376#7 1456538727 704235517#1 -103654149#34 -103654149#31 -103654149#28 -103654149#26 -103654149#22 -103654149#21 -103654149#18 -103654149#17 -103654149#15 -103654149#12 -103654149#11 -103654149#10 -103654149#8 -103654149#6 -104203667#11 104203667#10"/>
    </vehicle>
    <vehicle id="44" depart="44.00">
        <route edges="-1158664548#3 1158664548#2 -610350139#28 -610350139#27 -610350139#26 -610350139#24 -610350139#23 -610350139#22 -610350139#21 105199625#11 105199625#13 105199625#14 105199625#17 -104353903#76 -104353903#74 -104353903#69 -104353903#68 -104353903#64 -104353903#63 -104353903#61 -104353903#58 -104353903#56 -104353903#54 -104353903#51 -104353903#48 -104353903#46 -104353903#42 -104353903#40 -104353903#35 -104353903#29 -104353903#22 -104353903#19 -104353903#18 -104353903#16 -104353903#14 -104353903#12 -104353903#10 -1451955625#34 -1451955625#22 -1451955625#21 -1451955625#15 -1451955625#13 -1451955625#8 -1451955625#6 -1451955625#5 -1451955625#1 -1451955625#0 -78180508 -1451955626#1 -78180524#39 -78180524#36 -78180524#33 -78180524#31 -78180524#28 -78180524#24 -78180524#22 -78180524#20 -78180524#16 -78180524#14 -78180524#13 -78180524#12 -78180524#10 -78180524#7 -78180524#5 104359231#0 207469339#0 -104359250#20 -104359250#19 -104359250#18"/>
    </vehicle>
    <vehicle id="45" depart="45.00">
        <route edges="-181203047#8 181203047#8 -1046409298#0 -181203044#2 732339014#2 732339014#4 732339014#7 -611756456#5 -611756456#3 -611756456#2 -611756456#1 -1091124445#17 -1091124445#14 -1091124445#13 -1091124445#11 -1091124445#7 -1091124445#5 -1091124445#3 -1091124445#1 -1451955625#34 -1451955625#22 -1451955625#21 -1451955625#15 -1451955625#13 -1451955625#8 -1451955625#6 -1451955625#5 -1451955625#1 -1451955625#0 -78180508 -1451955626#1 -78180524#39 -78180524#36 -78180524#33 -78180524#31 -78180524#28 -78180524#24 -78180524#22 -78180524#20 -78180524#16 -78180524#14 -78180524#13 -78180524#12 -78180524#10 -78180524#7 -78180524#5 80804184#23 80804184#39 80804184#44 80804184#52 931312220#0 104344861#30 104344861#42 104344861#44 104344861#46 104344861#50 104344861#53 206653525#0 206653525#4"/>
    </vehicle>
    <vehicle id="46" depart="46.00">
        <route edges="209463449#0 -209463449#1 -1158951666#1 -1158951666#0 -598378611#2 -598378611#1 -598378611#0 -209463249#5 -209463249#4 -209463249#2 -209463249#1 78180517#1 78180517#4 78180517#5 1453374503#0 1453374503#2 1453374503#6 80804184#1 80804184#6 80804184#16 78180524#0 78180524#7 78180524#8 78180524#12 78180524#13 78180524#14 -78180524#14"/>
    </vehicle>
    <vehicle id="47" depart="47.00">
        <route edges="-104360525#8 -104360525#7 -104360525#6 209463475 -598378611#2 -598378611#1"/>
    </vehicle>
    <vehicle id="48" depart="48.00">
        <route edges="948435084#3 1453850145#3 104359271#3 104359271#6 104359271#8 104359271#9 104359252#3 -207469384#2 -207469384#0 206696676#3 80804184#16 80804184#23 80804184#39 80804184#44 80804184#52 931312220#0 931312220#4 931312220#8 931312220#9 728007238#2 104358333#0 104358334#1"/>
    </vehicle>
    <vehicle id="49" depart="49.00">