<?xml version="1.0" encoding="UTF-8"?>

<!-- generated on 2026-03-11 15:48:36.076784 by randomTrips.py fe51c07
<configuration>
    <net-file value="ishinomaki_light.net.xml"/>
    <route-file value="routes.rou.xml"/>
</configuration>
-->

<routes xmlns:xsi="http://www.w3.org/2001/XMLSchema-instance" xsi:noNamespaceSchemaLocation="http://sumo.dlr.de/xsd/routes_file.xsd">
    <trip id="0" depart="0.00" from="206697670#0" to="-104204697"/>
    <trip id="1" depart="1.00" from="-209294964#0" to="-206707697#0"/>
    <trip id="2" depart="2.00" from="207302315#1" to="206704021#2"/>
    <trip id="3" depart="3.00" from="610280796#1" to="-106507791#1"/>
    <trip id="4" depart="4.00" from="-78180524#10" to="-104312042#0"/>
    <trip id="5" depart="5.00" from="-206707421" to="104202331#7"/>
    <trip id="6" depart="6.00" from="-104277944#14" to="-206705903#9"/>
    <trip id="7" depart="7.00" from="206702226#14" to="104359850#16"/>
    <trip id="8" depart="8.00" from="-206707615" to="1451666431"/>
    <trip id="9" depart="9.00" from="209463616#1" to="-103654149#40"/>
    <trip id="10" depart="10.00" from="209463594#1" to="206705989#16"/>
    <trip id="11" depart="11.00" from="-485333514#6" to="-206702225"/>
    <trip id="12" depart="12.00" from="903822325#2" to="-441718553#2"/>
    <trip id="13" depart="13.00" from="-1162765733" to="-1391322051"/>
    <trip id="14" depart="14.00" from="562048176#1" to="181203057#2"/>
    <trip id="15" depart="15.00" from="209463601#2" to="206818246#7"/>
    <trip id="16" depart="16.00" from="104359256#10" to="925091542#0"/>
    <trip id="17" depart="17.00" from="-593459211#1" to="104362095#0"/>
    <trip id="18" depart="18.00" from="363228410" to="206652850#2"/>
    <trip id="19" depart="19.00" from="562517680#1" to="106511085#2"/>
    <trip id="20" depart="20.00" from="206706126#0" to="-104359246#3"/>
    <trip id="21" depart="21.00" from="-206713786#3" to="-209463384"/>
    <trip id="22" depart="22.00" from="-104497263#9" to="-206818028#0"/>
    <trip id="23" depart="23.00" from="-1451666472#4" to="-209463235#2"/>
    <trip id="24" depart="24.00" from="206655811#0" to="-570501801#0"/>
    <trip id="25" depart="25.00" from="-571049238#8" to="-206706179#2"/>
    <trip id="26" depart="26.00" from="-209000861#0" to="80804184#6"/>
    <trip id="27" depart="27.00" from="206702215#0" to="199921279#8"/>
    <trip id="28" depart="28.00" from="-206703944#0" to="206818243"/>
    <trip id="29" depart="29.00" from="-206702642#1" to="-593459216#0"/>
    <trip id="30" depart="30.00" from="941860080#2" to="206697686#0"/>
    <trip id="31" depart="31.00" from="104385752#3" to="206705376#1"/>
    <trip id="32" depart="32.00" from="531215442#0" to="209463229#7"/>
    <trip id="33" depart="33.00" from="-206817382#20" to="-104353111#13"/>
    <trip id="34" depart="34.00" from="-229843993#3" to="-209000869#0"/>
    <trip id="35" depart="35.00" from="-206706227" to="886625218#1"/>
    <trip id="36" depart="36.00" from="584427999#0" to="-212736434#1"/>
    <trip id="37" depart="37.00" from="206702443#5" to="-627202941#28"/>
    <trip id="38" depart="38.00" from="704235508#0" to="-920055070"/>
    <trip id="39" depart="39.00" from="-209000841" to="-207302422#2"/>
    <trip id="40" depart="40.00" from="104407881#9" to="-208418303"/>
    <trip id="41" depart="41.00" from="1240359536#0" to="610350143#1"/>
    <trip id="42" depart="42.00" from="-687775173#3" to="-206707478#0"/>
    <trip id="43" depart="43.00" from="949182598#3" to="104203667#10"/>
    <trip id="44" depart="44.00" from="-1158664548#3" to="-104359250#18"/>
    <trip id="45" depart="45.00" from="-181203047#8" to="206653525#4"/>
    <trip id="46" depart="46.00" from="209463449#0" to="-78180524#14"/>
    <trip id="47" depart="47.00" from="-104360525#8" to="-598378611#1"/>
    <trip id="48" depart="48.00" from="948435084#3" to="104358334#1"/>
    <trip id="49" depart="49.00" from="920055098" to="562264590#0"/>
    <trip id="50" depart="50.00" from="-104189300#3" to="206707835#0"/>
    <trip id="51" depart="51.00" from="206705311#2" to="104359256#4"/>
    <trip id="52" depart="52.00" from="-209000859" to="206697697#5"/>
    <trip id="53" depart="53.00" from="-181203057#4" to="-886625254#2"/>
    <trip id="54" depart="54.00" from="-912736749#0" to="903069033#0"/>
    <trip id="55" depart="55.00" from="584427995#0" to="-208472773"/>
    <trip id="56" depart="56.00" from="104191577" to="-206704000#2"/>
    <trip id="57" depart="57.00" from="687775219#0" to="570501812#3"/>
    <trip id="58" depart="58.00" from="-209463514#1" to="206697655#5"/>
    <trip id="59" depart="59.00" from="199921279#9" to="-206702197#7"/>
    <trip id="60" depart="60.00" from="208646527#0" to="104359270#0"/>
    <trip id="61" depart="61.00" from="209463239#10" to="104359233#2"/>
    <trip id="62" depart="62.00" from="-1002539876#0" to="-321643848"/>
    <trip id="63" depart="63.00" from="-104202333#6" to="78180514#0"/>
    <trip id="64" depart="64.00" from="584428013#1" to="373414886#3"/>
    <trip id="65" depart="65.00" from="-209463598#0" to="-104359850#8"/>
    <trip id="66" depart="66.00" from="584428009#1" to="897905718#4"/>
    <trip id="67" depart="67.00" from="-1057805774" to="1002516997#3"/>
    <trip id="68" depart="68.00" from="-104385753#0" to="208412097#1"/>
    <trip id="69" depart="69.00" from="209000863#0" to="-206652909#3"/>
    <trip id="70" depart="70.00" from="-940701503#20" to="104360518#9"/>
    <trip id="71" depart="71.00" from="-209000843#1" to="570507929#7"/>
    <trip id="72" depart="72.00" from="-78180530#12" to="-206706241#18"/>
    <trip id="73" depart="73.00" from="104359269" to="206818257#0"/>
    <trip id="74" depart="74.00" from="-206705958#4" to="-209463621#2"/>
    <trip id="75" depart="75.00" from="948321275" to="206702226#0"/>
    <trip id="76" depart="76.00" from="-899282617#3" to="104344861#46"/>
    <trip id="77" depart="77.00" from="-206652401#6" to="-206707772"/>
    <trip id="78" depart="78.00" from="-483459528#2" to="1451612481#2"/>
    <trip id="79" depart="79.00" from="-206817943#1" to="-206707611"/>
    <trip id="80" depart="80.00" from="-104385767#3" to="206653559#0"/>
    <trip id="81" depart="81.00" from="-206817382#16" to="663796684#0"/>
    <trip id="82" depart="82.00" from="562264580" to="-104385767#1"/>
    <trip id="83" depart="83.00" from="-207302228#2" to="206703958#2"/>
    <trip id="84" depart="84.00" from="-206706297#0" to="-206653025#1"/>
    <trip id="85" depart="85.00" from="798860011#1" to="104696567#7"/>
    <trip id="86" depart="86.00" from="-939922220#1" to="209463313#0"/>
    <trip id="87" depart="87.00" from="209463605#0" to="-206705455#7"/>
    <trip id="88" depart="88.00" from="-1391322053#1" to="-886625101"/>
    <trip id="89" depart="89.00" from="-782314438#3" to="-931913954#1"/>
    <trip id="90" depart="90.00" from="206818246#0" to="206703997#0"/>
    <trip id="91" depart="91.00" from="937084637#1" to="-1451612481#9"/>
    <trip id="92" depart="92.00" from="-687775193#0" to="-483968553#1"/>
    <trip id="93" depart="93.00" from="562517680#1" to="-207302458#1"/>
    <trip id="94" depart="94.00" from="-206705455#23" to="-906977791#1"/>
    <trip id="95" depart="95.00" from="-78180518#1" to="-209463236#2"/>
    <trip id="96" depart="96.00" from="-207302466#4" to="728007244#0"/>
    <trip id="97" depart="97.00" from="-903069303#0" to="562517661"/>
    <trip id="98" depart="98.00" from="104360520" to="-104359262#2"/>
    <trip id="99" depart="99.00" from="952812679#0" to="439399551#3"/>
    <trip id="100" depart="100.00" from="916919849#2" to="732339014#2"/>
    <trip id="101" depart="101.00" from="562048184#2" to="-206703722#2"/>
    <trip id="102" depart="102.00" from="-980529166#7" to="-206706282#4"/>
    <trip id="103" depart="103.00" from="-687775183#1" to="-104359853#1"/>
    <trip id="104" depart="104.00" from="-593459213" to="939980406#0"/>
    <trip id="105" depart="105.00" from="-209000845" to="209463302"/>
    <trip id="106" depart="106.00" from="-912736763#5" to="-78180524#7"/>
    <trip id="107" depart="107.00" from="903822325#3" to="948434913#2"/>
    <trip id="108" depart="108.00" from="104384025#29" to="206707688"/>
    <trip id="109" depart="109.00" from="-206702217#1" to="-209463496#0"/>
    <trip id="110" depart="110.00" from="916919848#5" to="1092649778"/>
    <trip id="111" depart="111.00" from="104359280#4" to="207302477#3"/>
    <trip id="112" depart="112.00" from="-104359847#9" to="1222188243"/>
    <trip id="113" depart="113.00" from="104191592#3" to="562264522#9"/>
    <trip id="114" depart="114.00" from="-206702375#1" to="906977989"/>
    <trip id="115" depart="115.00" from="-1046409298#2" to="-206705172#3"/>
    <trip id="116" depart="116.00" from="1453850145#3" to="206704009#0"/>
    <trip id="117" depart="117.00" from="-206818274#0" to="-206652395#9"/>
    <trip id="118" depart="118.00" from="610280778#1" to="-207302418#0"/>
    <trip id="119" depart="119.00" from="1453568409" to="206652864#0"/>
    <trip id="120" depart="120.00" from="-732339029" to="1163046948"/>
    <trip id="121" depart="121.00" from="104356258#4" to="798860003#2"/>
    <trip id="122" depart="122.00" from="-206706004#1" to="206707616#2"/>
    <trip id="123" depart="123.00" from="-207302257#0" to="-627202941#6"/>
    <trip id="124" depart="124.00" from="206703985#1" to="-209463528"/>
    <trip id="125" depart="125.00" from="-229844001" to="207469335"/>
    <trip id="126" depart="126.00" from="-104385777#6" to="-920031826#1"/>
    <trip id="127" depart="127.00" from="949873237" to="948435084#3"/>
    <trip id="128" depart="128.00" from="-104407881#6" to="-206706255#3"/>
    <trip id="129" depart="129.00" from="-209000845" to="782314447#3"/>
    <trip id="130" depart="130.00" from="589663646#0" to="584430937#2"/>
    <trip id="131" depart="131.00" from="-570507934#1" to="-206702376#2"/>
    <trip id="132" depart="132.00" from="38845183#8" to="206706095"/>
    <trip id="133" depart="133.00" from="206366589#12" to="940701503#0"/>
    <trip id="134" depart="134.00" from="206702418#13" to="-103963950#7"/>
    <trip id="135" depart="135.00" from="229844023#11" to="-209463522#1"/>
    <trip id="136" depart="136.00" from="206703925#1" to="886625066"/>
    <trip id="137" depart="137.00" from="-206653528#9" to="-199921272#3"/>
    <trip id="138" depart="138.00" from="-1456728940#1" to="104362097#15"/>
    <trip id="139" depart="139.00" from="-209294921#1" to="187148762#0"/>
    <trip id="140" depart="140.00" from="206707664#2" to="-206706003#13"/>
    <trip id="141" depart="141.00" from="206655434#0" to="-208646527#1"/>
    <trip id="142" depart="142.00" from="1023542367#1" to="663708500#0"/>
    <trip id="143" depart="143.00" from="562048170#8" to="-1162765728#0"/>
    <trip id="144" depart="144.00" from="-782314438#3" to="-209463229#4"/>
    <trip id="145" depart="145.00" from="-1023542382" to="209294919#1"/>
    <trip id="146" depart="146.00" from="206696671#2" to="-208412097#0"/>
    <trip id="147" depart="147.00" from="207302402#1" to="104360527#7"/>
    <trip id="148" depart="148.00" from="-798860016#0" to="-1041890611"/>
    <trip id="149" depart="149.00" from="-104483911#8" to="593459203#2"/>
    <trip id="150" depart="150.00" from="663706709#6" to="104359851#3"/>
    <trip id="151" depart="151.00" from="38845852#0" to="1162983863"/>
    <trip id="152" depart="152.00" from="-206697722#0" to="-206652892#1"/>
    <trip id="153" depart="153.00" from="-209463603#1" to="611756429#5"/>
    <trip id="154" depart="154.00" from="209463503#0" to="562264589"/>
    <trip id="155" depart="155.00" from="611756429#5" to="-206706204#2"/>
    <trip id="156" depart="156.00" from="-207302463#1" to="-1451955625#6"/>
    <trip id="157" depart="157.00" from="209463245#4" to="593459214#1"/>
    <trip id="158" depart="158.00" from="-689464288#7" to="206652880#1"/>
    <trip id="159" depart="159.00" from="-206702216#2" to="78180516#0"/>
    <trip id="160" depart="160.00" from="565864004#1" to="931312220#0"/>
    <trip id="161" depart="161.00" from="209463621#6" to="589663646#6"/>
    <trip id="162" depart="162.00" from="-104204696#0" to="207302310"/>
    <trip id="163" depart="163.00" from="-373414886#2" to="78180524#23"/>
    <trip id="164" depart="164.00" from="209463558" to="563678898#0"/>
    <trip id="165" depart="165.00" from="209463621#6" to="-209000859"/>
    <trip id="166" depart="166.00" from="209463368" to="-181035291#4"/>
    <trip id="167" depart="167.00" from="570507929#1" to="562264571#2"/>
    <trip id="168" depart="168.00" from="-206707665#1" to="229844019#1"/>
    <trip id="169" depart="169.00" from="-923795054#2" to="-209463574#1"/>
    <trip id="170" depart="170.00" from="209463495#0" to="-206713723#4"/>
    <trip id="171" depart="171.00" from="-104203667#7" to="-206705678"/>
    <trip id="172" depart="172.00" from="-362379324" to="565864002#2"/>
    <trip id="173" depart="173.00" from="913230404" to="-209463237#2"/>
    <trip id="174" depart="174.00" from="206697712#0" to="-687775175#2"/>
    <trip id="175" depart="175.00" from="931914130#1" to="104359256#11"/>
    <trip id="176" depart="176.00" from="886625069#2" to="-199921272#2"/>
    <trip id="177" depart="177.00" from="920031828#0" to="-206703999#3"/>
    <trip id="178" depart="178.00" from="911696716#0" to="-209000848"/>
    <trip id="179" depart="179.00" from="-181203044#15" to="-886625253"/>
    <trip id="180" depart="180.00" from="206818223" to="-212735978"/>
    <trip id="181" depart="181.00" from="199913505#0" to="104204700#0"/>
    <trip id="182" depart="182.00" from="-610280779" to="106511076#5"/>
    <trip id="183" depart="183.00" from="-207469339#1" to="206706248#1"/>
    <trip id="184" depart="184.00" from="-1013486211#6" to="728007248#8"/>
    <trip id="185" depart="185.00" from="104359265#10" to="206707739#1"/>
    <trip id="186" depart="186.00" from="207302406#0" to="206703974#7"/>
    <trip id="187" depart="187.00" from="-570406810#1" to="-104385760#1"/>
    <trip id="188" depart="188.00" from="206703931#0" to="-363223493#1"/>
    <trip id="189" depart="189.00" from="-212735982" to="562048179"/>
    <trip id="190" depart="190.00" from="206707761#3" to="-209463531#0"/>
    <trip id="191" depart="191.00" from="-209463607#2" to="-704235509#1"/>
    <trip id="192" depart="192.00" from="-687775190#1" to="-209463478#1"/>
    <trip id="193" depart="193.00" from="-206652886#1" to="-78180501"/>
    <trip id="194" depart="194.00" from="886625107#2" to="206704023#2"/>
    <trip id="195" depart="195.00" from="663479444#3" to="206652411#7"/>
    <trip id="196" depart="196.00" from="-209463537#1" to="104360513#1"/>
    <trip id="197" depart="197.00" from="-1002517003#0" to="-209463330"/>
    <trip id="198" depart="198.00" from="-886625066" to="1156139221#1"/>
    <trip id="199" depart="199.00" from="206702418#7" to="-931645768#0"/>
    <trip id="200" depart="200.00" from="-901555229#5" to="-206706282#3"/>
    <trip id="201" depart="201.00" from="-939980454#2" to="627202947#0"/>
    <trip id="202" depart="202.00" from="209463502#0" to="-206703936#0"/>
    <trip id="203" depart="203.00" from="-105199625#5" to="104312035#3"/>
    <trip id="204" depart="204.00" from="206655409#0" to="-38846004#11"/>
    <trip id="205" depart="205.00" from="229844081#2" to="207469320#2"/>
    <trip id="206" depart="206.00" from="206703995#3" to="-206707765#2"/>
    <trip id="207" depart="207.00" from="-206705929#0" to="-104203672#3"/>
    <trip id="208" depart="208.00" from="-207302404#0" to="-940701503#19"/>
    <trip id="209" depart="209.00" from="562048191#4" to="-104385780"/>
    <trip id="210" depart="210.00" from="-728007241#2" to="206653548#0"/>
    <trip id="211" depart="211.00" from="-206705719#11" to="206705937#1"/>
    <trip id="212" depart="212.00" from="103968139#0" to="-207302392#4"/>
    <trip id="213" depart="213.00" from="206702592" to="-103654149#12"/>
    <trip id="214" depart="214.00" from="207469321#0" to="209294861#4"/>
    <trip id="215" depart="215.00" from="-1456728916#3" to="-782314449#1"/>
    <trip id="216" depart="216.00" from="-206703978#7" to="903822339#1"/>
    <trip id="217" depart="217.00" from="104344861#6" to="-104359259#2"/>
    <trip id="218" depart="218.00" from="-207302462#2" to="562048182#0"/>
    <trip id="219" depart="219.00" from="-916919847#0" to="209463548#2"/>
    <trip id="220" depart="220.00" from="206703951#3" to="940701503#20"/>
    <trip id="221" depart="221.00" from="1453910217#2" to="899291761#2"/>
    <trip id="222" depart="222.00" from="610280786#2" to="206652394#7"/>
    <trip id="223" depart="223.00" from="206707746#0" to="104202327#7"/>
    <trip id="224" depart="224.00" from="363406455#1" to="104360513#0"/>
    <trip id="225" depart="225.00" from="610350140#19" to="207302422#5"/>
    <trip id="226" depart="226.00" from="-940701503#11" to="-207469389#1"/>
    <trip id="227" depart="227.00" from="-207302428#0" to="206696676#0"/>
    <trip id="228" depart="228.00" from="209000863#0" to="104353904#13"/>
    <trip id="229" depart="229.00" from="206653523#0" to="-209294961#5"/>
    <trip id="230" depart="230.00" from="-104497256#4" to="-209463315"/>
    <trip id="231" depart="231.00" from="-209294915#1" to="-229844082#1"/>
    <trip id="232" depart="232.00" from="104359272#0" to="-206653568#1"/>
    <trip id="233" depart="233.00" from="-206817986#2" to="206705879#0"/>
    <trip id="234" depart="234.00" from="206706216#0" to="-104361691#2"/>
    <trip id="235" depart="235.00" from="-704235508#0" to="104359281#2"/>
    <trip id="236" depart="236.00" from="-728007246#7" to="-206706089#5"/>
    <trip id="237" depart="237.00" from="-776891238#3" to="663708137#1"/>
    <trip id="238" depart="238.00" from="1222188243" to="206705933#18"/>
    <trip id="239" depart="239.00" from="562264552" to="209000858#9"/>
    <trip id="240" depart="240.00" from="-593459229#0" to="-103654149#22"/>
    <trip id="241" depart="241.00" from="-562264525" to="207469356#0"/>
    <trip id="242" depart="242.00" from="562264536#2" to="902695839#1"/>
    <trip id="243" depart="243.00" from="-732339027#0" to="207302474#4"/>
    <trip id="244" depart="244.00" from="104359853#2" to="181203056#7"/>
    <trip id="245" depart="245.00" from="-206707616#0" to="-206707478#1"/>
    <trip id="246" depart="246.00" from="-886627925#0" to="-104312033#1"/>
    <trip id="247" depart="247.00" from="-439399551#9" to="206705149#0"/>
    <trip id="248" depart="248.00" from="-687775201" to="-206703141#1"/>
    <trip id="249" depart="249.00" from="-931913967" to="-206652897#0"/>
    <trip id="250" depart="250.00" from="206652914#1" to="-104277944#4"/>
    <trip id="251" depart="251.00" from="-611756429#9" to="104497251#0"/>
    <trip id="252" depart="252.00" from="-104277944#8" to="206702157#1"/>
    <trip id="253" depart="253.00" from="-206653548#1" to="-925091633#1"/>
    <trip id="254" depart="254.00" from="-104359261#0" to="-593459214#1"/>
    <trip id="255" depart="255.00" from="-206706241#15" to="-362326297#0"/>
    <trip id="256" depart="256.00" from="208425730#14" to="-593459214#3"/>
    <trip id="257" depart="257.00" from="207469343#0" to="373414887#2"/>
    <trip id="258" depart="258.00" from="-207302549#5" to="-104696561#2"/>
    <trip id="259" depart="259.00" from="-104202333#3" to="104359270#1"/>
    <trip id="260" depart="260.00" from="980529166#7" to="-562264522#17"/>
    <trip id="261" depart="261.00" from="206702226#2" to="209463249#0"/>
    <trip id="262" depart="262.00" from="206702376#1" to="207469367#0"/>
    <trip id="263" depart="263.00" from="899291758" to="-206705933#10"/>
    <trip id="264" depart="264.00" from="-104202338#9" to="-206702197#2"/>
    <trip id="265" depart="265.00" from="-206652873#3" to="206703960#5"/>
    <trip id="266" depart="266.00" from="104497245" to="-206707345#0"/>
    <trip id="267" depart="267.00" from="206706003#18" to="209000870#2"/>
    <trip id="268" depart="268.00" from="-206703750#2" to="199921270#1"/>
    <trip id="269" depart="269.00" from="207302480#1" to="-199921268#0"/>
    <trip id="270" depart="270.00" from="232285783#0" to="911722763#0"/>
    <trip id="271" depart="271.00" from="-181035291#4" to="-104204701#2"/>
    <trip id="272" depart="272.00" from="-209463622#6" to="206704023#2"/>
    <trip id="273" depart="273.00" from="903822339#3" to="-660371014#1"/>
    <trip id="274" depart="274.00" from="206707586" to="-104497244#0"/>
    <trip id="275" depart="275.00" from="206705721#20" to="206653523#3"/>
    <trip id="276" depart="276.00" from="-1451926681#2" to="209294939#0"/>
    <trip id="277" depart="277.00" from="562140153#10" to="181203044#1"/>
    <trip id="278" depart="278.00" from="-206652401#7" to="937084636#0"/>
    <trip id="279" depart="279.00" from="209463274" to="-562048184#5"/>
    <trip id="280" depart="280.00" from="-80804184#5" to="-572788623#3"/>
    <trip id="281" depart="281.00" from="104202335#8" to="-531211974#1"/>
    <trip id="282" depart="282.00" from="562048191#2" to="317944115#2"/>
    <trip id="283" depart="283.00" from="-1454714166" to="906977990"/>
    <trip id="284" depart="284.00" from="206655809" to="362475138#2"/>
    <trip id="285" depart="285.00" from="206706241#12" to="-886627620"/>
    <trip id="286" depart="286.00" from="207302229" to="912736749#1"/>
    <trip id="287" depart="287.00" from="-209294858#10" to="209463606#0"/>
    <trip id="288" depart="288.00" from="104359263#0" to="-949182599"/>
    <trip id="289" depart="289.00" from="-886627631#1" to="206818274#1"/>
    <trip id="290" depart="290.00" from="-209000874#0" to="562264522#20"/>
    <trip id="291" depart="291.00" from="363406455#3" to="-105885701#0"/>
    <trip id="292" depart="292.00" from="589663647" to="-207302392#1"/>
    <trip id="293" depart="293.00" from="-931312223#1" to="206357570#14"/>
    <trip id="294" depart="294.00" from="-593459214#0" to="-104312026#9"/>
    <trip id="295" depart="295.00" from="562140153#6" to="-206704022#2"/>
    <trip id="296" depart="296.00" from="-206706241#4" to="209463515#5"/>
    <trip id="297" depart="297.00" from="-485333514#8" to="584766783#4"/>
    <trip id="298" depart="298.00" from="206706089#0" to="-209463228#0"/>
    <trip id="299" depart="299.00" from="-104189279#3" to="899285386#1"/>
    <trip id="300" depart="300.00" from="-105250937#5" to="206707761#4"/>
    <trip id="301" depart="301.00" from="1023542367#2" to="207469395#1"/>
    <trip id="302" depart="302.00" from="206705721#20" to="206702196#0"/>
    <trip id="303" depart="303.00" from="103648392#15" to="209463457#0"/>
    <trip id="304" depart="304.00" from="-1162796896#5" to="-206707660#0"/>
    <trip id="305" depart="305.00" from="206705795" to="-209463584#2"/>
    <trip id="306" depart="306.00" from="1162765727" to="-939980511"/>
    <trip id="307" depart="307.00" from="104359235#4" to="-783295147#1"/>
    <trip id="308" depart="308.00" from="207302462#6" to="-363327565"/>
    <trip id="309" depart="309.00" from="206706089#54" to="-209294861#4"/>
    <trip id="310" depart="310.00" from="-207302480#1" to="-206652400"/>
    <trip id="311" depart="311.00" from="-206705662" to="-206652395#2"/>
    <trip id="312" depart="312.00" from="104359253#0" to="208477119"/>
    <trip id="313" depart="313.00" from="-206705163#2" to="-206706345#2"/>
    <trip id="314" depart="314.00" from="-949185941#3" to="206817382#15"/>
    <trip id="315" depart="315.00" from="931312221#1" to="104357231#3"/>
    <trip id="316" depart="316.00" from="-209463259" to="-1451666471#0"/>
    <trip id="317" depart="317.00" from="-206705702" to="-206713342#1"/>
    <trip id="318" depart="318.00" from="-206704004#1" to="-104191569#1"/>
    <trip id="319" depart="319.00" from="104359250#14" to="-209294961#1"/>
    <trip id="320" depart="320.00" from="926836970#0" to="104362097#16"/>
    <trip id="321" depart="321.00" from="206705989#10" to="-206652878#1"/>
    <trip id="322" depart="322.00" from="570501802#4" to="103648392#2"/>
    <trip id="323" depart="323.00" from="570507931#0" to="105199629#1"/>
    <trip id="324" depart="324.00" from="-931914340#4" to="-899291759"/>
    <trip id="325" depart="325.00" from="-206705151#4" to="-104359266#0"/>
    <trip id="326" depart="326.00" from="886625116#1" to="-942269484"/>
    <trip id="327" depart="327.00" from="317944115#2" to="-687775182#0"/>
    <trip id="328" depart="328.00" from="-1044809667#3" to="206653541#1"/>
    <trip id="329" depart="329.00" from="-104359278#12" to="-206702166#0"/>
    <trip id="330" depart="330.00" from="104483911#2" to="-209463562#1"/>
    <trip id="331" depart="331.00" from="947541445#0" to="-206363328#2"/>
    <trip id="332" depart="332.00" from="209000854" to="199913504#7"/>
    <trip id="333" depart="333.00" from="209463434" to="-206707877#0"/>
    <trip id="334" depart="334.00" from="104356258#1" to="-911696501"/>
    <trip id="335" depart="335.00" from="-902695839#1" to="562264584#0"/>
    <trip id="336" depart="336.00" from="941860081#16" to="-209463576#1"/>
    <trip id="337" depart="337.00" from="206652892#1" to="199921283#1"/>
    <trip id="338" depart="338.00" from="207302382#0" to="899282618#0"/>
    <trip id="339" depart="339.00" from="-206706106#1" to="-206706227"/>
    <trip id="340" depart="340.00" from="206703165#3" to="-206702228#2"/>
    <trip id="341" depart="341.00" from="-206703959#0" to="-104483911#3"/>
    <trip id="342" depart="342.00" from="-1023542367#3" to="-911696501"/>
    <trip id="343" depart="343.00" from="1453374503#6" to="-209463419"/>
    <trip id="344" depart="344.00" from="-206817994" to="206706224"/>
    <trip id="345" depart="345.00" from="206706089#6" to="-912736751"/>
    <trip id="346" depart="346.00" from="206705611" to="728007246#3"/>
    <trip id="347" depart="347.00" from="209463375" to="206653016#5"/>
    <trip id="348" depart="348.00" from="206703731#1" to="782314449#4"/>
    <trip id="349" depart="349.00" from="-782314447#5" to="104359849#0"/>
    <trip id="350" depart="350.00" from="206702211#0" to="687775186#1"/>
    <trip id="351" depart="351.00" from="362368679#0" to="-104385771#0"/>
    <trip id="352" depart="352.00" from="-206703165#1" to="-209463598#2"/>
    <trip id="353" depart="353.00" from="207302550#0" to="1046409305#1"/>
    <trip id="354" depart="354.00" from="-209463366" to="-206652843#3"/>
    <trip id="355" depart="355.00" from="206705681" to="206706003#18"/>
    <trip id="356" depart="356.00" from="886625215" to="104191575#1"/>
    <trip id="357" depart="357.00" from="103963950#7" to="-1046409298#7"/>
    <trip id="358" depart="358.00" from="-104357435#40" to="-886625116#1"/>
    <trip id="359" depart="359.00" from="-317944111#0" to="-207302471#3"/>
    <trip id="360" depart="360.00" from="-1158951666#4" to="911696225"/>
    <trip id="361" depart="361.00" from="439399551#4" to="105885643#2"/>
    <trip id="362" depart="362.00" from="899291766#0" to="963586595#0"/>
    <trip id="363" depart="363.00" from="206703989#3" to="-209012475#0"/>
    <trip id="364" depart="364.00" from="-104357435#46" to="207469383#2"/>
    <trip id="365" depart="365.00" from="-936616930" to="206702230#0"/>
    <trip id="366" depart="366.00" from="704235511#15" to="-206704021#4"/>
    <trip id="367" depart="367.00" from="1247548982#3" to="206655439#0"/>
    <trip id="368" depart="368.00" from="103654149#18" to="-1158951666#3"/>
    <trip id="369" depart="369.00" from="-562048190#1" to="-38845019#3"/>
    <trip id="370" depart="370.00" from="206703974#0" to="562264557#6"/>
    <trip id="371" depart="371.00" from="-362486631#1" to="206705876#2"/>
    <trip id="372" depart="372.00" from="-209463354" to="886627942#4"/>
    <trip id="373" depart="373.00" from="212736962#0" to="104360519#2"/>
    <trip id="374" depart="374.00" from="-912736761#3" to="-212736426"/>
    <trip id="375" depart="375.00" from="-318154075#1" to="920031826#1"/>
    <trip id="376" depart="376.00" from="-687775198#0" to="104312026#3"/>
    <trip id="377" depart="377.00" from="940701503#25" to="206702641#0"/>
    <trip id="378" depart="378.00" from="104359281#2" to="-728007237#2"/>
    <trip id="379" depart="379.00" from="-206705330" to="-562517682#9"/>
    <trip id="380" depart="380.00" from="207469386#1" to="206653020#2"/>
    <trip id="381" depart="381.00" from="208408368#7" to="-206706003#12"/>
    <trip id="382" depart="382.00" from="104360516#27" to="732339030"/>
    <trip id="383" depart="383.00" from="-899282617#3" to="206705989#19"/>
    <trip id="384" depart="384.00" from="-206652408#3" to="925091542#0"/>
    <trip id="385" depart="385.00" from="199921279#8" to="-207302279"/>
    <trip id="386" depart="386.00" from="-206702389#0" to="104360525#0"/>
    <trip id="387" depart="387.00" from="104362095#16" to="-1162983865#0"/>
    <trip id="388" depart="388.00" from="944907036#0" to="687775220#1"/>
    <trip id="389" depart="389.00" from="-925091581#0" to="-199921283#2"/>
    <trip id="390" depart="390.00" from="376520639#18" to="104189339#2"/>
    <trip id="391" depart="391.00" from="206707625#0" to="104203665#2"/>
    <trip id="392" depart="392.00" from="-209294939#2" to="38845850#2"/>
    <trip id="393" depart="393.00" from="931914007" to="-207302383#1"/>
    <trip id="394" depart="394.00" from="104360525#8" to="-610261366#1"/>
    <trip id="395" depart="395.00" from="728007238#15" to="104203663#24"/>
    <trip id="396" depart="396.00" from="584431851#0" to="563678898#0"/>
    <trip id="397" depart="397.00" from="-209463228#0" to="209463416"/>
    <trip id="398" depart="398.00" from="-728007244#2" to="783295150#1"/>
    <trip id="399" depart="399.00" from="104203663#11" to="281792509#0"/>
    <trip id="400" depart="400.00" from="-209463257" to="-209463514#2"/>
    <trip id="401" depart="401.00" from="1391322053#0" to="952812678#0"/>
    <trip id="402" depart="402.00" from="1023542383" to="-206702157#1"/>
    <trip id="403" depart="403.00" from="104359265#4" to="-562048172"/>
    <trip id="404" depart="404.00" from="104360532#0" to="104359283#7"/>