<?xml version="1.0" encoding="UTF-8"?>

<!-- generated on 2025-10-05 16:39:07 by Eclipse SUMO sumo Version 1.20.0
-->

<configuration xmlns:xsi="http://www.w3.org/2001/XMLSchema-instance" xsi:noNamespaceSchemaLocation="http://sumo.dlr.de/xsd/sumoConfiguration.xsd">

    <input>
        <net-file value="one_shelter_one_departure.net.xml"/>
        <additional-files value="one_shelter_one_departure.add.xml"/>
    </input>

</configuration>
